36
Energy: -108380.951047 eV PBE+vdW (tier 2 basis)
C    0.284282  0.385350  0.348622
C    -0.049174  0.041183  1.763970
O    0.891791  -0.067044  2.616608
H    0.517770  -0.521598  -0.229565
H    1.193371  0.998402  0.361929
H    -0.519223  0.926803  -0.156265
N    -1.324745  -0.109370  2.199855
C    -2.370767  -0.991762  1.646277
C    -2.033079  -2.438995  2.106098
O    -0.828225  -2.736604  2.458436
H    -1.358863  -0.091394  3.220218
H    -3.301059  -0.708860  2.164042
C    -2.667428  -0.855276  0.139489
C    -3.473717  0.425101  -0.184442
C    -4.891423  0.188803  -0.792257
N    -5.554537  -1.056467  -0.397472
C    -5.603327  -1.530977  0.888031
N    -5.623650  -0.576464  1.889296
N    -5.535291  -2.789149  1.242743
H    -3.247885  -1.743129  -0.138662
H    -1.749858  -0.924302  -0.453832
H    -2.923977  1.058184  -0.893634
H    -3.571846  1.025313  0.729766
H    -4.829632  0.150291  -1.885629
H    -5.523302  1.059781  -0.563527
H    -5.561488  -1.783229  -1.103982
H    -5.974072  -0.950393  2.767345
H    -6.048782  0.315385  1.651443
H    -5.532915  -3.406826  0.426182
N    -3.014070  -3.302283  2.170212
C    -2.839858  -4.690442  2.591202
H    -4.025628  -3.026790  1.881458
H    -3.813089  -5.185053  2.524632
H    -2.489526  -4.742395  3.630177
H    -2.122741  -5.212178  1.945386
Sr    1.194080  -2.246469  3.350114
