36
Energy: -108382.20646 eV PBE+vdW (tier 2 basis)
C    0.482972  0.831527  0.370378
C    0.456479  0.766270  1.874570
O    1.572312  0.629549  2.503362
H    1.411847  0.381803  0.006797
H    0.472947  1.879010  0.032640
H    -0.379059  0.330740  -0.088525
N    -0.644946  0.876728  2.631546
C    -1.840673  1.519606  2.097074
C    -1.657203  3.044287  2.303433
O    -0.785475  3.460916  3.123887
H    -0.500845  -1.175102  2.954348
H    -1.966299  1.332422  1.017039
C    -3.119582  1.060445  2.837123
C    -3.853342  -0.176742  2.296582
C    -3.247170  -1.564917  2.549167
N    -2.372488  -2.075942  1.474196
C    -1.143378  -2.590916  1.644612
N    -0.694629  -3.534689  0.803179
N    -0.371807  -2.145446  2.643942
H    -3.849756  1.881404  2.830398
H    -2.856950  0.911219  3.896145
H    -4.063635  -0.056743  1.221754
H    -4.840917  -0.186496  2.779177
H    -4.063934  -2.292918  2.655922
H    -2.682360  -1.592310  3.487950
H    -2.848188  -2.352984  0.619654
H    -1.331823  -4.102151  0.256152
H    0.288169  -3.777697  0.760600
H    0.510323  -2.599560  2.847198
N    -2.409966  3.918773  1.640110
C    -3.469272  3.669312  0.665909
H    -2.234546  4.892199  1.888646
H    -3.431784  4.447993  -0.103076
H    -4.458798  3.693832  1.141805
H    -3.329425  2.699916  0.178622
Sr    0.856782  2.125018  4.185034
