36
Energy: -108381.159054 eV PBE+vdW (tier 2 basis)
C    -0.521348  -1.071169  -0.123565
C    -0.454625  -0.686545  1.318142
O    0.649562  -0.337723  1.842327
H    -0.211007  -0.208068  -0.729679
H    -1.518663  -1.390185  -0.443036
H    0.197842  -1.875961  -0.323597
N    -1.581644  -0.705536  2.040632
C    -1.745814  -0.198617  3.415141
C    -1.180875  -1.201566  4.448434
O    0.078001  -1.134475  4.688753
H    -2.437084  -0.977696  1.561405
H    -1.066487  0.663857  3.510634
C    -3.175830  0.298556  3.637958
C    -3.425611  1.730538  3.153043
C    -4.842769  2.216868  3.536129
N    -5.156780  1.980703  4.943039
C    -5.853756  0.848750  5.370983
N    -7.081679  0.695863  4.765668
N    -5.296152  0.056397  6.235880
H    -3.399144  0.257754  4.713815
H    -3.895086  -0.392831  3.169931
H    -3.295436  1.827909  2.063481
H    -2.682724  2.401075  3.617721
H    -5.597904  1.696860  2.932759
H    -4.926270  3.287162  3.300887
H    -4.410989  2.206269  5.596565
H    -7.603482  1.540685  4.552649
H    -7.654530  -0.081675  5.072965
H    -5.981374  -0.579495  6.655881
N    -1.906783  -2.090968  5.099821
C    -3.341165  -2.403815  5.050204
H    -1.362276  -2.624177  5.778803
H    -3.481207  -3.354041  5.572806
H    -3.676454  -2.530187  4.015894
H    -3.936471  -1.617069  5.550007
Sr    1.994495  -0.471965  3.671451
