36
Energy: -108381.68232 eV PBE+vdW (tier 2 basis)
C    0.157447  0.227849  1.388883
C    -0.325759  -0.187837  2.629944
O    0.480570  -0.242989  3.656158
H    -0.411835  0.193623  0.466525
H    1.069397  0.827147  1.388717
H    -1.263736  2.391838  1.152282
N    -1.594746  -0.729405  2.869401
C    -2.343479  -1.589094  1.970579
C    -1.566034  -2.903920  1.659464
O    -0.335359  -3.024122  1.901734
H    -1.650570  -1.017564  3.843825
H    -3.239199  -1.883539  2.539928
C    -2.833733  -0.894850  0.670334
C    -3.420252  0.497467  0.948361
C    -3.282003  1.443785  -0.251802
N    -3.605167  2.836151  0.071561
C    -2.753741  3.729947  0.593647
N    -3.123820  5.016890  0.687653
N    -1.532848  3.363485  1.006268
H    -3.583495  -1.536583  0.187762
H    -2.002974  -0.828719  -0.045625
H    -2.899223  0.929042  1.814802
H    -4.476727  0.419971  1.242024
H    -3.942341  1.148622  -1.077052
H    -2.258352  1.419963  -0.654569
H    -4.566429  3.136287  -0.052376
H    -2.593585  5.679861  1.239420
H    -3.932928  5.372553  0.193241
H    -0.842295  4.066481  1.239059
N    -2.261826  -3.911636  1.139869
C    -1.683649  -5.212834  0.799628
H    -3.259892  -3.789304  1.001971
H    -1.272089  -5.695885  1.694052
H    -0.886432  -5.095740  0.056328
H    -2.471854  -5.844567  0.382140
Sr    1.640398  -1.860657  2.518923
