36
Energy: -108382.153541 eV PBE+vdW (tier 2 basis)
C    0.346794  0.124724  0.409511
C    0.093426  -0.146482  1.865978
O    1.119338  -0.594472  2.546998
H    1.162548  0.852731  0.306114
H    -0.537685  0.515189  -0.101049
H    0.679387  -0.797258  -0.086416
N    -1.103541  0.074626  2.340040
C    -1.495972  -0.233390  3.724370
C    -0.659586  0.481336  4.797536
O    0.390372  -0.012984  5.313073
H    -2.473562  -0.050145  1.401412
H    -2.506962  0.191460  3.826454
C    -1.625709  -1.747898  3.993663
C    -2.374102  -2.513835  2.892881
C    -3.901037  -2.419872  2.860712
N    -4.547889  -1.088227  2.696228
C    -4.552124  -0.338139  1.562241
N    -5.717031  0.205283  1.164639
N    -3.425035  -0.112780  0.894313
H    -2.108392  -1.898758  4.971569
H    -0.621839  -2.191288  4.078127
H    -2.171673  -3.586905  3.027275
H    -1.955420  -2.263818  1.909558
H    -4.305019  -2.797814  3.808588
H    -4.268434  -3.088676  2.067610
H    -5.402926  -0.999637  3.237315
H    -5.741427  0.956312  0.484409
H    -6.606897  -0.191239  1.443451
H    -3.495154  0.327575  -0.017421
N    -1.099087  1.674890  5.184245
C    -0.442905  2.526090  6.173573
H    -1.932654  2.033143  4.728406
H    -1.190813  3.184623  6.624684
H    0.336806  3.142540  5.706224
H    0.005711  1.902669  6.952657
Sr    2.238122  -0.993522  4.372534
