36
Energy: -108381.795044 eV PBE+vdW (tier 2 basis)
C    0.695117  0.551427  0.226731
C    0.162736  -0.477828  1.168097
O    0.810459  -1.548893  1.397049
H    0.046892  1.429203  0.136739
H    0.819043  0.097419  -0.766168
H    1.690514  0.871534  0.561596
N    -1.011818  -0.269725  1.767317
C    -1.641874  -1.258842  2.649291
C    -3.190961  -1.298038  2.606229
O    -3.701907  -2.414539  2.530236
H    -1.499750  0.596740  1.560498
H    -1.398140  -2.236196  2.212463
C    -1.078535  -1.186924  4.086681
C    -1.649731  -2.212162  5.077699
C    -1.630881  -3.690557  4.685623
N    -0.281465  -4.247859  4.315675
C    0.794916  -4.121274  5.280665
N    0.514853  -4.279193  6.579597
N    1.952191  -3.851402  4.741288
H    -1.258559  -0.183817  4.497748
H    0.019445  -1.272038  4.031841
H    -2.707339  -1.981786  5.272931
H    -1.138956  -2.060530  6.039427
H    -2.272400  -3.856967  3.810000
H    -2.078662  -4.276116  5.505236
H    -0.423974  -5.251995  4.152288
H    1.232459  -4.186469  7.291785
H    -0.405258  -4.566702  6.893762
H    2.732416  -3.820996  5.401332
N    -3.924987  -0.164427  2.712963
C    -3.508785  1.225597  2.855768
H    -4.926104  -0.341894  2.652664
H    -4.300386  1.777989  3.372794
H    -3.352374  1.721028  1.883171
H    -2.606319  1.319162  3.471432
Sr    1.445633  -3.527611  2.347015
