36
Energy: -108380.563378 eV PBE+vdW (tier 2 basis)
C    0.447357  0.348688  2.192337
C    -0.104792  -0.664158  3.141027
O    0.692948  -1.460039  3.736947
H    -0.136502  1.272335  2.173926
H    0.477388  -0.058143  1.169510
H    1.479074  0.565366  2.490641
N    -1.427752  -0.763025  3.416324
C    -2.521524  -0.825437  2.429803
C    -2.406718  -2.188312  1.695510
O    -1.321865  -2.874005  1.778533
H    -1.592320  -1.367652  4.222444
H    -3.445591  -0.849652  3.028147
C    -2.662097  0.339678  1.439798
C    -2.984557  1.702366  2.073926
C    -3.765703  2.622901  1.109612
N    -5.142551  2.208612  0.907465
C    -5.562812  1.244139  0.011372
N    -6.841570  0.768584  0.238084
N    -4.859499  0.682274  -0.926580
H    -3.491337  0.067818  0.774122
H    -1.788077  0.403189  0.777890
H    -2.068202  2.218681  2.399725
H    -3.594630  1.562631  2.979660
H    -3.244317  2.706031  0.142693
H    -3.783931  3.638559  1.523397
H    -5.846085  2.695564  1.449703
H    -7.288457  0.394998  -0.593313
H    -7.464160  1.307980  0.829241
H    -3.981963  1.177810  -1.094376
N    -3.423495  -2.651665  0.994021
C    -4.763328  -2.085447  0.788505
H    -3.230889  -3.527706  0.507961
H    -5.446678  -2.916717  0.591441
H    -4.775650  -1.379434  -0.064506
H    -5.106854  -1.559738  1.685828
Sr    0.590112  -3.575297  2.816948
