36
Energy: -108382.944069 eV PBE+vdW (tier 2 basis)
C    1.247283  0.036935  0.723582
C    -0.050356  -0.272951  1.405237
O    -0.080716  -0.561135  2.627586
H    1.142713  0.283946  -0.337943
H    1.913361  -0.830449  0.825503
H    1.732087  0.874723  1.241690
N    -1.170755  -0.232876  0.647959
C    -2.549344  -0.575810  1.057617
C    -3.089299  0.530645  1.985865
O    -2.781060  0.561682  3.204791
H    -1.038481  0.000643  -0.331068
H    -3.130487  -0.548756  0.128152
C    -2.635594  -2.019224  1.597940
C    -4.014353  -2.568342  1.994227
C    -4.631174  -2.126005  3.330107
N    -3.692305  -2.109646  4.479759
C    -2.963425  -3.269536  4.891021
N    -3.480511  -4.484365  4.635065
N    -1.811694  -2.990694  5.438820
H    -1.915757  -2.172471  2.411824
H    -2.251820  -2.649373  0.783223
H    -3.919314  -3.662528  1.988943
H    -4.756210  -2.345582  1.212182
H    -5.515071  -2.755571  3.528438
H    -5.009013  -1.097956  3.265904
H    -4.156398  -1.703345  5.295150
H    -4.463333  -4.601677  4.416458
H    -2.968058  -5.326618  4.875253
H    -1.335673  -3.797294  5.848417
N    -3.879502  1.471719  1.465148
C    -4.320890  1.644788  0.077586
H    -4.161333  2.189899  2.131223
H    -3.474526  1.834045  -0.594593
H    -4.978851  2.517479  0.041632
H    -4.894738  0.779293  -0.275105
Sr    -1.310606  -0.651348  4.644697
