36
Energy: -108382.492119 eV PBE+vdW (tier 2 basis)
C    -0.264676  2.332660  0.072677
C    -0.137952  0.899316  0.469381
O    0.983886  0.334708  0.568256
H    -0.167587  2.971972  0.964550
H    -1.219362  2.557007  -0.414512
H    0.566117  2.589031  -0.593837
N    -1.254023  0.165050  0.751579
C    -2.373551  0.650382  1.551058
C    -1.805805  1.135852  2.911636
O    -0.746227  0.611116  3.360052
H    -1.025038  -0.814903  0.953990
H    -2.878471  1.472949  1.023760
C    -3.381300  -0.490598  1.842917
C    -3.825740  -1.379570  0.666383
C    -2.901937  -2.560556  0.287722
N    -2.499256  -3.382704  1.433161
C    -1.357370  -3.243140  2.144680
N    -1.356820  -3.699290  3.429581
N    -0.256166  -2.630189  1.701062
H    -4.272843  -0.017991  2.275519
H    -2.970758  -1.122622  2.646526
H    -3.995948  -0.780872  -0.240507
H    -4.807247  -1.795513  0.935129
H    -2.004203  -2.223845  -0.242874
H    -3.428924  -3.211442  -0.420935
H    -3.195400  -4.031792  1.789238
H    -0.493392  -4.103167  3.775756
H    -2.203293  -4.087551  3.832834
H    -0.201044  -2.702452  0.680516
N    -2.489961  2.064233  3.566296
C    -2.162912  2.587336  4.893067
H    -3.317251  2.443668  3.111762
H    -3.002603  2.414588  5.576526
H    -1.968187  3.664630  4.830901
H    -1.274451  2.075083  5.268148
Sr    1.093094  -0.794447  2.691459
