36
Energy: -108380.839954 eV PBE+vdW (tier 2 basis)
C    -0.065032  1.765874  -0.322215
C    -0.092835  1.208335  1.063430
O    0.796408  1.531717  1.915943
H    -0.572921  2.743142  -0.352369
H    -0.544818  1.105969  -1.052176
H    0.979538  1.937848  -0.605846
N    -1.088648  0.381173  1.441509
C    -2.493171  0.561229  1.070797
C    -2.925004  1.971246  1.535147
O    -2.236545  2.606527  2.406161
H    -0.938026  -0.124736  2.315401
H    -2.606121  0.480524  -0.020983
C    -3.320192  -0.540389  1.758486
C    -4.740448  -0.758718  1.225303
C    -5.278306  -2.165497  1.588181
N    -4.804085  -3.240043  0.739810
C    -3.662506  -3.977926  0.979142
N    -3.635046  -5.180190  0.303390
N    -2.717908  -3.489634  1.726362
H    -3.357355  -0.337596  2.842946
H    -2.768952  -1.503181  1.647573
H    -4.759641  -0.669688  0.126302
H    -5.441964  -0.011176  1.630083
H    -6.373195  -2.147142  1.514980
H    -5.027043  -2.398078  2.633997
H    -5.428219  -3.575557  0.018003
H    -2.820583  -5.765359  0.443816
H    -4.501006  -5.697627  0.194308
H    -1.999200  -4.189326  1.918805
N    -4.043335  2.461804  1.029937
C    -4.688272  3.718572  1.409204
H    -4.531645  1.882669  0.349339
H    -4.905964  4.302299  0.507646
H    -4.021438  4.285608  2.061618
H    -5.627515  3.512772  1.937672
Sr    -0.234703  2.839705  3.527047
