36
Energy: -108383.089123 eV PBE+vdW (tier 2 basis)
C    -0.824075  0.670134  0.451900
C    -1.511844  -0.017115  1.591735
O    -1.976496  -1.178067  1.456918
H    -0.002103  0.037421  0.092836
H    -0.431178  1.660475  0.704146
H    -1.536895  0.770628  -0.378064
N    -1.607828  0.659790  2.756022
C    -2.334078  0.257422  3.977741
C    -1.693267  -1.002359  4.604623
O    -2.047499  -2.162324  4.252593
H    -1.217655  1.597208  2.758739
H    -2.177013  1.087708  4.677633
C    -3.846271  0.106288  3.756241
C    -4.633781  -0.190941  5.043979
C    -5.894474  -1.027730  4.781199
N    -5.521884  -2.334601  4.239321
C    -5.926146  -2.896593  3.067506
N    -7.164837  -2.584169  2.623289
N    -5.070284  -3.679397  2.414549
H    -4.028621  -0.683004  3.016128
H    -4.206368  1.036868  3.296814
H    -4.926349  0.742393  5.543791
H    -4.010810  -0.736220  5.772283
H    -6.542446  -0.524299  4.051530
H    -6.468946  -1.142390  5.711197
H    -4.762423  -2.818016  4.706312
H    -7.468535  -2.896457  1.709274
H    -7.893029  -2.301318  3.269141
H    -5.565505  -4.274099  1.744943
N    -0.761035  -0.841015  5.540741
C    -0.206610  0.405371  6.079647
H    -0.386528  -1.712403  5.914420
H    -0.970803  0.990792  6.606016
H    0.256200  1.010949  5.291230
H    0.571374  0.141952  6.801429
Sr    -2.642957  -3.288884  2.252197
