36
Energy: -108380.930913 eV PBE+vdW (tier 2 basis)
C    -3.694906  1.957980  -0.439570
C    -3.324975  1.170833  0.775484
O    -3.164304  1.755959  1.890711
H    -4.540430  2.618407  -0.212047
H    -3.938299  1.336542  -1.307432
H    -2.843428  2.604460  -0.700835
N    -3.158262  -0.152097  0.639777
C    -2.565045  -1.129648  1.579939
C    -3.493172  -1.464309  2.750931
O    -3.783005  -0.583041  3.625092
H    -3.294785  -0.504436  -0.303506
H    -2.448398  -2.032471  0.970146
C    -1.151662  -0.757159  2.086328
C    -0.197861  -0.378079  0.955012
C    1.269284  -0.216754  1.409032
N    2.129101  0.276392  0.342400
C    2.202793  -0.453120  -0.863690
N    2.625552  -1.765152  -0.678279
N    1.844177  0.132308  -1.949284
H    -0.772256  -1.635520  2.632797
H    -1.203100  0.058992  2.826373
H    -0.518540  0.562701  0.482164
H    -0.227976  -1.145562  0.165037
H    1.648994  -1.180375  1.776820
H    1.340637  0.491698  2.248316
H    1.940362  1.248169  0.100138
H    2.801116  -2.281924  -1.534077
H    3.367388  -1.889137  0.006741
H    2.088816  -0.409020  -2.784089
N    -3.945748  -2.701446  2.894766
C    -3.742533  -3.866897  2.024226
H    -4.499795  -2.850695  3.738322
H    -4.078153  -3.661313  1.001172
H    -4.347881  -4.687340  2.419051
H    -2.692852  -4.185296  2.023325
Sr    -3.540955  1.627684  4.115215
