36
Energy: -108381.881874 eV PBE+vdW (tier 2 basis)
C    0.296243  -0.809060  0.904138
C    0.263357  -0.662665  2.392626
O    1.132452  -1.275453  3.105790
H    1.096886  -0.162128  0.513758
H    -0.639064  -0.527512  0.411956
H    0.560258  -1.837701  0.635285
N    -0.634603  0.092969  3.006171
C    -1.695476  0.965091  2.499527
C    -1.526531  2.242350  3.378464
O    -1.063117  2.084614  4.515698
H    -0.463660  0.338380  3.997772
H    -1.554132  1.165142  1.431501
C    -3.108531  0.409257  2.797578
C    -3.579221  -0.898547  2.139881
C    -2.870733  -2.214237  2.505884
N    -2.588662  -2.333445  3.940665
C    -1.529758  -2.990357  4.434937
N    -1.089573  -2.667400  5.750796
N    -0.735361  -3.824848  3.807383
H    -3.825297  1.188096  2.500411
H    -3.205538  0.348163  3.893230
H    -3.542170  -0.815693  1.043652
H    -4.647270  -1.002615  2.382467
H    -1.906006  -2.302246  1.988948
H    -3.492206  -3.057033  2.167925
H    -3.238078  -1.900403  4.591181
H    -1.191792  -3.456858  6.392755
H    -1.524919  -1.839584  6.159677
H    -1.112836  -4.177944  2.927346
N    -1.938842  3.422254  2.891839
C    -2.437086  3.718551  1.550188
H    -1.839525  4.196925  3.544440
H    -1.684701  3.506212  0.778872
H    -2.667697  4.786366  1.502524
H    -3.361934  3.171640  1.323197
Sr    1.426592  -2.977723  4.572102
