36
Energy: -108381.016424 eV PBE+vdW (tier 2 basis)
C    0.458812  1.083009  1.770399
C    -0.072572  0.320894  2.933231
O    0.703783  -0.133458  3.836686
H    1.167749  1.853501  2.098070
H    -0.328386  1.513441  1.140747
H    1.039705  0.370287  1.162788
N    -1.399923  0.096070  3.047946
C    -2.411108  1.135595  2.830383
C    -2.141691  2.256008  3.852037
O    -1.416099  2.025617  4.886849
H    -1.642206  -0.581933  3.772914
H    -2.302597  1.546328  1.801008
C    -3.814319  0.513610  3.015342
C    -4.183969  -0.534852  1.944201
C    -5.009663  0.013068  0.762856
N    -4.426304  1.178578  0.103363
C    -3.200774  1.169100  -0.541841
N    -3.035947  0.160580  -1.453585
N    -2.320644  2.073534  -0.202018
H    -3.852066  0.057770  4.018877
H    -4.561062  1.319973  3.039026
H    -4.769362  -1.335604  2.417431
H    -3.271708  -1.015661  1.558404
H    -6.009227  0.311356  1.106591
H    -5.168622  -0.794495  0.037005
H    -4.583791  2.062493  0.573191
H    -2.179544  0.146746  -1.994377
H    -3.855163  -0.176496  -1.949413
H    -1.570342  2.149288  -0.894928
N    -2.648972  3.460682  3.664216
C    -3.409425  3.957641  2.511876
H    -2.475478  4.121202  4.421717
H    -3.071983  3.466011  1.587598
H    -3.219624  5.031750  2.421864
H    -4.486476  3.809919  2.666975
Sr    0.335732  0.915843  5.866094
