36
Energy: -108382.340069 eV PBE+vdW (tier 2 basis)
C    2.537137  -2.072194  2.181340
C    1.544325  -1.087568  2.732297
O    1.703512  0.156889  2.350198
H    2.395110  -2.170377  1.095967
H    2.448010  -3.056049  2.649937
H    3.558478  -1.702256  2.335903
N    0.594726  -1.512255  3.525622
C    -0.413202  -0.549650  3.992573
C    0.156928  0.346260  5.100752
O    0.654395  1.483325  4.819974
H    0.083668  -3.284917  3.486092
H    -0.686068  0.151791  3.180802
C    -1.671543  -1.329561  4.402908
C    -2.269002  -2.066573  3.194357
C    -2.995942  -3.367928  3.528408
N    -2.244761  -4.349301  4.349227
C    -1.077177  -4.959765  4.055052
N    -0.915644  -6.238795  4.443090
N    -0.086452  -4.324372  3.426209
H    -2.413725  -0.657183  4.854930
H    -1.397041  -2.069282  5.174017
H    -1.481905  -2.269686  2.456379
H    -2.997008  -1.423310  2.679720
H    -3.322760  -3.853589  2.596921
H    -3.897947  -3.155445  4.115880
H    -2.820801  -4.857146  5.012985
H    0.004198  -6.659507  4.498456
H    -1.710476  -6.841006  4.621731
H    0.687416  -4.883980  3.085818
N    0.142950  -0.094450  6.351154
C    0.690551  0.627639  7.497430
H    -0.252890  -1.014994  6.514034
H    0.152935  0.320203  8.399205
H    0.560442  1.703246  7.347470
H    1.758733  0.406954  7.624625
Sr    1.709940  2.266939  2.926502
