36
Energy: -108381.84568 eV PBE+vdW (tier 2 basis)
C    0.859934  0.852290  4.111905
C    -0.095543  -0.289760  4.261933
O    -0.451303  -0.678422  5.419744
H    1.627860  0.751034  4.889129
H    1.339416  0.887665  3.129232
H    0.349300  1.810349  4.291683
N    -0.582618  -0.917247  3.170324
C    -1.110484  -0.171732  2.015364
C    -2.575624  0.245710  2.357103
O    -2.872312  0.310590  3.642116
H    -1.117191  -1.753591  3.407475
H    -0.541060  0.768457  1.968452
C    -0.868066  -0.908990  0.691025
C    -1.614579  -2.238764  0.459891
C    -2.899344  -2.163955  -0.380161
N    -2.677515  -1.676596  -1.743708
C    -3.005985  -0.462734  -2.219147
N    -2.950763  -0.258769  -3.549670
N    -3.366252  0.523488  -1.399948
H    0.213278  -1.096082  0.648962
H    -1.065995  -0.208573  -0.130365
H    -1.882713  -2.724764  1.411841
H    -0.927528  -2.944667  -0.028031
H    -3.649094  -1.521614  0.092702
H    -3.338444  -3.167632  -0.461326
H    -2.262031  -2.326000  -2.403537
H    -3.043898  0.669659  -3.940787
H    -2.911805  -1.030697  -4.203165
H    -3.261692  0.484970  -0.344274
N    -3.372178  0.543358  1.391558
C    -4.712068  1.015567  1.737192
H    -3.747540  1.371872  -1.801286
H    -4.677087  2.006464  2.214224
H    -5.229272  0.330754  2.425742
H    -5.313908  1.099543  0.824952
Sr    -2.673590  -0.062530  5.808752
