36
Energy: -108383.047395 eV PBE+vdW (tier 2 basis)
C    -0.277141  1.128305  0.322797
C    -0.114763  0.495862  1.671261
O    1.006758  0.066884  2.047540
H    -0.021782  0.383426  -0.443743
H    0.441016  1.951794  0.220032
H    -1.286736  1.504774  0.128548
N    -1.214912  0.406306  2.447583
C    -1.369859  -0.282733  3.749321
C    -0.642362  0.512334  4.854418
O    0.614023  0.495311  4.966260
H    -2.068017  0.785027  2.047653
H    -2.447640  -0.225501  3.958158
C    -1.003836  -1.778718  3.655051
C    -1.446510  -2.699446  4.802519
C    -0.714521  -2.566218  6.154073
N    0.731833  -2.353791  6.060187
C    1.634955  -3.106657  5.372179
N    1.413204  -4.439975  5.315873
N    2.647641  -2.484701  4.774047
H    0.071348  -1.899264  3.475737
H    -1.488929  -2.139758  2.737240
H    -1.317769  -3.725610  4.432104
H    -2.525491  -2.592991  4.993174
H    -0.941623  -3.447345  6.771890
H    -1.093837  -1.712200  6.729230
H    1.041385  -1.407193  6.236996
H    0.854131  -4.899018  6.026148
H    2.038492  -5.034540  4.785953
H    3.392286  -3.146585  4.540541
N    -1.414883  1.213092  5.682044
C    -0.933419  2.053717  6.777142
H    -2.418927  1.189215  5.526575
H    -1.498401  1.825910  7.688038
H    -1.070314  3.113813  6.528720
H    0.127958  1.854711  6.941938
Sr    2.557646  -0.224235  3.775776
