36
Energy: -108381.481245 eV PBE+vdW (tier 2 basis)
C    0.978236  0.297127  0.665054
C    0.566310  0.307679  2.095201
O    1.395359  0.688941  2.992152
H    1.346040  1.299520  0.406424
H    1.826477  -0.391334  0.543162
H    0.176294  0.021009  -0.030820
N    -0.662256  -0.087201  2.439085
C    -1.226302  0.025637  3.793575
C    -0.653270  -1.069798  4.722273
O    0.439087  -0.858920  5.339534
H    -1.362225  -0.276524  1.693088
H    -0.868790  0.973838  4.227417
C    -2.761598  0.065757  3.733502
C    -3.340323  1.212845  2.872065
C    -3.988072  0.731367  1.564920
N    -3.059897  0.001856  0.678278
C    -2.310449  0.638301  -0.350212
N    -2.055066  1.985236  -0.142104
N    -1.733993  0.024533  -1.318112
H    -3.124849  0.150056  4.766136
H    -3.145888  -0.892638  3.344591
H    -2.560677  1.957406  2.653186
H    -4.109540  1.742796  3.448742
H    -4.462339  1.579797  1.047015
H    -4.808850  0.041885  1.803930
H    -3.466487  -0.857551  0.317151
H    -1.624681  2.405144  -0.963029
H    -2.817469  2.552241  0.216473
H    -1.944277  -0.976494  -1.347146
N    -1.313402  -2.205648  4.862154
C    -0.893719  -3.329320  5.700782
H    -2.185594  -2.304877  4.349258
H    -1.784843  -3.820466  6.103403
H    -0.277058  -2.959362  6.524007
H    -0.320591  -4.055876  5.110123
Sr    2.327294  0.401093  5.006378
