36
Energy: -108381.72998 eV PBE+vdW (tier 2 basis)
C    -0.423730  -0.596176  -0.253279
C    -0.000151  -0.393837  1.167311
O    1.173752  -0.711443  1.537603
H    0.115884  0.086739  -0.924991
H    -1.499925  -0.479560  -0.407605
H    -0.128182  -1.614384  -0.541090
N    -0.872194  0.114820  2.067024
C    -1.633843  1.347038  1.777918
C    -0.742707  2.547385  2.221905
O    0.555798  2.365491  2.045620
H    -0.515295  0.064537  3.021763
H    -1.661560  1.436219  0.680945
C    -3.097872  1.285708  2.232324
C    -3.431910  0.921658  3.687902
C    -3.065622  1.969672  4.752481
N    -3.435069  3.325922  4.363651
C    -4.549788  3.974603  4.682084
N    -5.538629  3.398885  5.388262
N    -4.699311  5.256281  4.297161
H    -3.584100  0.535666  1.592771
H    -3.563668  2.244082  1.964764
H    -2.969453  -0.036590  3.970993
H    -4.516137  0.738384  3.722076
H    -1.979672  1.992802  4.919734
H    -3.508661  1.711638  5.723985
H    -2.775205  3.692829  3.627200
H    -6.269213  3.955641  5.813958
H    -5.504988  2.420043  5.636537
H    -5.596383  5.721767  4.345387
N    -1.294545  3.627095  2.652887
C    -0.419807  4.765050  2.929186
H    -3.940761  5.751340  3.847876
H    -1.027755  5.636079  3.199069
H    0.189926  5.033867  2.054474
H    0.266875  4.560569  3.765863
Sr    2.436936  1.220818  1.941185
