36
Energy: -108381.280927 eV PBE+vdW (tier 2 basis)
C    -1.109309  -0.787812  -0.414535
C    -0.672474  -0.605449  0.995553
O    0.522108  -0.870969  1.358014
H    -0.303460  -0.533545  -1.111037
H    -2.035392  -0.250292  -0.653325
H    -1.316204  -1.863418  -0.544640
N    -1.546982  -0.170751  1.929007
C    -2.457548  0.956726  1.735046
C    -1.603034  2.224929  1.584374
O    -0.345802  2.198597  1.854394
H    -1.209949  -0.281334  2.887592
H    -3.057674  0.821711  0.796804
C    -3.428742  1.051019  2.927217
C    -4.396925  -0.131168  3.073773
C    -5.451380  -0.295225  1.961745
N    -5.060300  -1.138297  0.834635
C    -4.820611  -0.662436  -0.429491
N    -5.009917  -1.584332  -1.433286
N    -4.355804  0.550509  -0.590168
H    -4.008660  1.978525  2.833748
H    -2.843322  1.161263  3.856661
H    -4.930188  0.021925  4.023070
H    -3.846625  -1.076954  3.190513
H    -5.751070  0.683065  1.561928
H    -6.348509  -0.744534  2.408411
H    -5.312514  -2.117371  0.903037
H    -5.750320  -2.271951  -1.335526
H    -4.866637  -1.269026  -2.385374
H    -4.357912  0.817448  -1.576709
N    -2.152929  3.351000  1.165949
C    -3.532483  3.588065  0.726287
H    -1.523927  4.153764  1.153843
H    -4.006103  2.648012  0.417426
H    -3.502505  4.264450  -0.134807
H    -4.110558  4.068388  1.526309
Sr    1.613691  1.040151  2.070903
