36
Energy: -108381.403026 eV PBE+vdW (tier 2 basis)
C    -0.633099  -1.430147  -0.256838
C    -0.244009  -0.884412  1.079448
O    0.907767  -0.375220  1.254238
H    -0.632555  -0.602081  -0.980547
H    -1.619886  -1.904362  -0.263726
H    0.119402  -2.151672  -0.598868
N    -1.141528  -0.934862  2.070223
C    -1.065360  -0.279197  3.388563
C    -0.207420  -1.104118  4.375959
O    1.035014  -1.258434  4.107309
H    -2.032034  -1.376972  1.854657
H    -0.492092  0.651254  3.244295
C    -2.482144  0.091462  3.853337
C    -3.535442  -1.041172  3.808420
C    -4.453345  -1.029654  5.042476
N    -3.701043  -1.310811  6.273621
C    -3.478928  -2.619440  6.782778
N    -3.644573  -3.642970  5.858025
N    -2.989413  -2.877987  7.939339
H    -2.819364  0.937496  3.239868
H    -2.395397  0.488045  4.875497
H    -3.061169  -2.035249  3.759445
H    -4.162373  -0.945103  2.910218
H    -5.292187  -1.727679  4.896787
H    -4.910783  -0.037963  5.155902
H    -3.904587  -0.662696  7.029415
H    -3.542075  -4.550351  6.308054
H    -4.482020  -3.606211  5.283144
H    -2.841980  -2.042132  8.511433
N    -0.733589  -1.589161  5.475539
C    0.022715  -2.364568  6.464122
H    -1.729070  -1.400182  5.691045
H    -0.697657  -2.880395  7.107756
H    0.646345  -1.698188  7.074816
H    0.665509  -3.090667  5.956240
Sr    2.666402  -0.627018  2.671496
