36
Energy: -108382.862737 eV PBE+vdW (tier 2 basis)
C    -0.839014  0.322680  0.562633
C    -0.553700  -0.426504  1.829153
O    0.596916  -0.889181  2.051060
H    -1.882969  0.635679  0.457564
H    -0.562376  -0.303643  -0.295974
H    -0.195294  1.212178  0.524467
N    -1.574123  -0.590782  2.692723
C    -1.598151  -1.252831  4.017303
C    -0.631834  -0.544367  4.995848
O    0.595947  -0.833094  5.000457
H    -2.455146  -0.176039  2.405021
H    -2.623930  -1.084387  4.364943
C    -1.346986  -2.771897  4.068023
C    -2.094116  -3.689715  3.089229
C    -1.471562  -3.852996  1.681438
N    -0.006389  -3.840141  1.648369
C    0.841459  -4.623306  2.373387
N    0.458040  -5.899389  2.606562
N    1.962539  -4.075893  2.836922
H    -1.624530  -3.065740  5.091451
H    -0.272707  -2.979684  4.004208
H    -3.143547  -3.382438  2.968300
H    -2.133289  -4.678217  3.565661
H    -1.782360  -3.042917  1.011471
H    -1.864719  -4.771067  1.221804
H    0.413447  -2.970062  1.345405
H    1.040187  -6.508007  3.168730
H    -0.202802  -6.357584  1.989143
H    2.632378  -4.799282  3.111163
N    -1.117388  0.361511  5.840356
C    -2.499459  0.827602  5.993631
H    -0.421137  0.765465  6.466077
H    -2.889165  1.240798  5.055622
H    -2.502133  1.629006  6.737543
H    -3.156195  0.027190  6.356851
Sr    2.244633  -1.711913  3.528613
