36
Energy: -108383.044527 eV PBE+vdW (tier 2 basis)
C    -1.249170  0.160425  -0.185418
C    -1.598046  0.372612  1.252069
O    -1.306366  1.442571  1.849550
H    -1.718227  0.952360  -0.784827
H    -1.563232  -0.814886  -0.571286
H    -0.163431  0.265346  -0.312049
N    -2.244162  -0.615005  1.910589
C    -2.712094  -0.435080  3.284433
C    -1.534767  -0.497437  4.289162
O    -1.165141  0.588579  4.828837
H    -2.510755  -1.449064  1.394698
H    -3.042985  0.608063  3.348450
C    -3.934038  -1.302250  3.626472
C    -4.501936  -1.065409  5.039370
C    -5.181505  0.288840  5.293181
N    -4.225875  1.398427  5.304059
C    -4.415150  2.657849  4.831270
N    -5.689381  3.061569  4.618467
N    -3.344948  3.401296  4.550241
H    -3.700949  -2.369716  3.515521
H    -4.708492  -1.078003  2.876687
H    -3.726191  -1.237479  5.804509
H    -5.259651  -1.838668  5.225480
H    -5.724567  0.234217  6.249779
H    -5.922381  0.485024  4.504943
H    -3.329120  1.238147  5.750528
H    -5.868242  3.957526  4.182203
H    -6.461735  2.650196  5.129368
H    -3.620631  4.382325  4.455325
N    -0.906354  -1.629737  4.588352
C    -1.130522  -2.992260  4.102898
H    -0.158907  -1.510778  5.272408
H    -0.189169  -3.543252  4.191860
H    -1.419658  -2.994717  3.048344
H    -1.892312  -3.509050  4.700357
Sr    -1.088155  2.754546  3.814713
