36
Energy: -108381.842219 eV PBE+vdW (tier 2 basis)
C    -2.841992  2.344700  2.841490
C    -2.026147  1.119847  3.164635
O    -0.936571  1.338322  3.871312
H    -3.245272  2.762487  3.774595
H    -3.668043  2.127226  2.158971
H    -2.212276  3.128056  2.397960
N    -2.441474  -0.038403  2.737984
C    -1.842084  -1.299407  3.151549
C    -0.325427  -1.486970  3.026002
O    0.420949  -0.728406  2.324345
H    -3.994041  -0.255943  1.909243
H    -2.070684  -1.458687  4.220575
C    -2.571780  -2.409881  2.349043
C    -2.433359  -2.249884  0.822941
C    -3.725812  -2.582523  0.049733
N    -4.475909  -1.426938  -0.478878
C    -5.242017  -0.570751  0.222005
N    -6.291236  0.001341  -0.399105
N    -4.976467  -0.289147  1.499812
H    -3.626883  -2.343521  2.647054
H    -2.240470  -3.408232  2.658632
H    -1.628448  -2.898076  0.453138
H    -2.135204  -1.221827  0.574356
H    -4.405044  -3.181466  0.674250
H    -3.494014  -3.188627  -0.832250
H    -4.605076  -1.405798  -1.484568
H    -6.709395  -0.415248  -1.222367
H    -6.741392  0.824281  -0.017840
H    -5.695056  0.187832  2.033793
N    0.247909  -2.514163  3.662301
C    -0.338188  -3.520756  4.547673
H    1.235696  -2.633036  3.441858
H    0.415112  -3.809470  5.287984
H    -0.640044  -4.416646  3.989904
H    -1.204863  -3.117488  5.079505
Sr    1.093748  1.352700  3.036272
