36
Energy: -108382.644602 eV PBE+vdW (tier 2 basis)
C    0.858360  0.238452  0.219669
C    0.597514  0.062170  1.680574
O    1.537676  0.059336  2.519887
H    1.526848  -0.561468  -0.125660
H    1.390059  1.187036  0.065709
H    -0.051395  0.233470  -0.389580
N    -0.683350  -0.089740  2.089725
C    -1.012056  -0.177944  3.512309
C    -0.721893  -1.600881  4.049139
O    0.340648  -1.764782  4.717663
H    -1.422166  -0.058699  1.393073
H    -0.232027  0.425682  3.991869
C    -2.345979  0.468874  3.933957
C    -2.237926  1.036770  5.364976
C    -1.366264  2.316462  5.409704
N    -0.579489  2.545949  6.624520
C    0.673533  2.041378  6.793061
N    1.549480  2.755776  7.527687
N    1.051567  0.887676  6.240542
H    -3.187216  -0.229896  3.870172
H    -2.571245  1.286604  3.231648
H    -1.839878  0.269363  6.047605
H    -3.243170  1.258635  5.744109
H    -2.009431  3.194792  5.278129
H    -0.664061  2.327536  4.560750
H    -0.868351  3.310801  7.225268
H    1.360742  3.707987  7.816016
H    2.341423  2.288043  7.949428
H    0.201802  0.331952  6.104221
N    -1.520902  -2.635448  3.807421
C    -2.755642  -2.717697  3.028700
H    -1.196594  -3.506195  4.229255
H    -3.637026  -2.689706  3.682520
H    -2.757899  -3.666477  2.481228
H    -2.819378  -1.908344  2.297654
Sr    2.355466  -0.468191  4.698550
