36
Energy: -108382.749574 eV PBE+vdW (tier 2 basis)
C    -2.183886  -0.257026  0.127415
C    -1.880234  -0.754155  1.509361
O    -1.138423  -1.751966  1.683991
H    -2.889356  0.580027  0.101973
H    -2.585293  -1.084736  -0.471222
H    -1.245579  0.055342  -0.351006
N    -2.438027  -0.083961  2.541005
C    -2.312445  -0.357515  3.986247
C    -0.840451  -0.165185  4.436719
O    -0.009078  -1.104207  4.315256
H    -3.027928  0.703096  2.290387
H    -2.931922  0.410174  4.463600
C    -2.794180  -1.743343  4.446482
C    -4.129146  -2.271476  3.914118
C    -4.207607  -3.812059  3.991022
N    -3.302428  -4.471618  3.040286
C    -1.985870  -4.749576  3.181848
N    -1.389840  -4.690122  4.463754
N    -1.117848  -4.983830  2.228241
H    -2.811163  -1.720743  5.547113
H    -2.003970  -2.451013  4.188426
H    -4.280922  -1.973512  2.865720
H    -4.973142  -1.851509  4.479168
H    -5.224069  -4.148583  3.753257
H    -4.008464  -4.176745  5.009209
H    -3.617628  -4.451483  2.073882
H    -0.849992  -5.539187  4.638422
H    -2.019475  -4.516747  5.244626
H    -1.539292  -5.100090  1.304221
N    -0.475327  1.006921  4.950939
C    -1.289136  2.207756  5.164732
H    0.504241  1.055791  5.228557
H    -1.723918  2.569967  4.225238
H    -0.633702  2.992097  5.553088
H    -2.079984  2.032651  5.904779
Sr    0.367020  -3.062040  2.949941
