36
Energy: -108382.015142 eV PBE+vdW (tier 2 basis)
C    0.175806  -0.747556  -0.682310
C    -0.275760  -0.431318  0.709567
O    0.366934  -0.910303  1.717862
H    1.214003  -0.415997  -0.818580
H    -0.447931  -0.273039  -1.446245
H    0.150860  -1.835288  -0.834009
N    -1.333425  0.334965  0.867361
C    -1.969404  0.762080  2.108783
C    -3.308102  1.387689  1.606476
O    -3.389792  1.698847  0.416034
H    -1.852557  0.735177  0.060925
H    -2.159594  -0.120371  2.740843
C    -1.086777  1.777720  2.867644
C    -1.463420  1.985673  4.343003
C    -0.235599  2.261085  5.219545
N    0.628685  1.076421  5.234844
C    1.984380  1.027344  5.227703
N    2.666348  2.146984  5.536235
N    2.568501  -0.123037  4.868349
H    -1.095147  2.734330  2.327030
H    -0.056006  1.399161  2.818215
H    -1.973831  1.093032  4.746204
H    -2.171809  2.815483  4.461519
H    -0.544876  2.531655  6.240166
H    0.339955  3.100744  4.805961
H    0.172670  0.190624  5.424223
H    2.239932  2.902318  6.060304
H    3.669519  2.191988  5.405884
H    3.533105  -0.147649  5.211228
N    -4.271278  1.584947  2.521929
C    -5.562679  2.192440  2.199229
H    -4.145685  1.207588  3.454398
H    -5.831829  2.921470  2.971379
H    -6.347596  1.428343  2.132176
H    -5.475251  2.698067  1.233933
Sr    1.919931  -1.692451  3.141235
