36
Energy: -108382.894038 eV PBE+vdW (tier 2 basis)
C    -0.019125  1.208570  2.425516
C    -0.573389  0.326973  3.499696
O    -0.066548  0.298625  4.650639
H    0.046926  2.237434  2.801466
H    -0.608710  1.197126  1.502812
H    1.006454  0.887756  2.196037
N    -1.642347  -0.444925  3.200651
C    -2.268704  -1.333650  4.179157
C    -1.434918  -2.628342  4.351473
O    -0.631652  -2.663696  5.326077
H    -2.024616  -0.394747  2.260499
H    -2.119538  -0.845994  5.146455
C    -3.786105  -1.469432  3.992048
C    -4.593412  -0.257046  4.492800
C    -4.614934  -0.009035  6.016821
N    -3.527958  0.839455  6.530842
C    -2.439006  0.429252  7.213743
N    -1.406152  1.374711  7.422883
N    -2.127150  -0.780046  7.608238
H    -4.118137  -2.371696  4.528294
H    -4.035067  -1.645287  2.935983
H    -5.635692  -0.415181  4.182882
H    -4.272392  0.663127  3.980662
H    -4.623729  -0.957172  6.571564
H    -5.552429  0.495429  6.281358
H    -3.684631  1.841099  6.468568
H    -1.230290  1.532956  8.416187
H    -1.510638  2.263732  6.936122
H    -2.900713  -1.445398  7.587361
N    -1.517430  -3.657569  3.512691
C    -2.342211  -3.827850  2.316164
H    -0.907450  -4.436069  3.761283
H    -3.357749  -4.157223  2.568856
H    -1.875986  -4.594773  1.690588
H    -2.386848  -2.905062  1.728832
Sr    0.199800  -0.886306  6.710036
