36
Energy: -108381.730512 eV PBE+vdW (tier 2 basis)
C    -0.059683  3.502256  0.349824
C    0.324661  2.417309  1.306756
O    1.411619  2.497844  1.961590
H    -0.368285  4.408605  0.891219
H    -0.857237  3.210203  -0.339094
H    0.836488  3.769032  -0.225401
N    -0.478574  1.342619  1.470051
C    -1.926932  1.504213  1.710232
C    -2.112700  1.699645  3.244276
O    -1.153485  2.390300  3.839370
H    -0.043770  0.614465  2.038253
H    -2.209848  2.465352  1.256320
C    -2.784323  0.418635  1.061183
C    -2.567708  -0.998245  1.598910
C    -3.625241  -2.007177  1.137133
N    -5.037928  -1.582392  1.247565
C    -5.736072  -1.322867  2.370760
N    -7.049290  -1.615173  2.387075
N    -5.156787  -0.778703  3.443377
H    -2.602552  0.446332  -0.023332
H    -3.831469  0.720161  1.199331
H    -2.527594  -0.986789  2.695674
H    -1.600474  -1.399744  1.259354
H    -3.490570  -2.953546  1.680946
H    -3.489138  -2.225732  0.070999
H    -5.605911  -1.775918  0.429717
H    -7.672554  -1.197333  3.067487
H    -7.450559  -2.284712  1.741428
H    -5.690180  -0.764555  4.305616
N    -3.162511  1.216804  3.809310
C    -3.368618  1.498651  5.227393
H    -4.353362  -0.097088  3.393592
H    -4.443332  1.481042  5.447369
H    -2.971362  2.476092  5.532269
H    -2.890108  0.725966  5.849992
Sr    0.933306  2.997014  4.200411
