36
Energy: -108381.402735 eV PBE+vdW (tier 2 basis)
C    0.374717  -0.355274  0.403094
C    0.000475  0.189670  1.746722
O    0.833210  0.888673  2.405425
H    0.319834  0.432829  -0.362809
H    -0.251295  -1.194916  0.087218
H    1.421363  -0.679848  0.453140
N    -1.219156  -0.065953  2.268086
C    -2.446282  0.084582  1.470721
C    -2.808436  1.610245  1.468757
O    -1.776712  2.427059  1.593695
H    -1.309062  0.250659  3.234857
H    -2.167953  -0.155613  0.433466
C    -3.560647  -0.881104  1.923166
C    -4.281000  -1.532025  0.730479
C    -5.586866  -2.283620  1.043101
N    -6.567837  -1.567460  1.885290
C    -6.749488  -0.241942  1.926806
N    -7.236041  0.337180  3.037441
N    -6.427456  0.563031  0.893435
H    -4.261065  -0.331467  2.564646
H    -3.107820  -1.664577  2.546113
H    -3.619156  -2.281512  0.270440
H    -4.445669  -0.778330  -0.050275
H    -5.358861  -3.204966  1.594610
H    -6.061223  -2.595197  0.100657
H    -7.073763  -2.133447  2.560301
H    -7.674671  1.247715  2.960917
H    -7.349433  -0.172721  3.905414
H    -6.342743  0.093427  -0.002281
N    -4.031715  1.982504  1.321496
C    -4.289101  3.421703  1.254740
H    -5.621187  1.227357  1.072694
H    -5.340728  3.591463  0.998120
H    -3.664788  3.918104  0.497531
H    -4.095003  3.908652  2.223176
Sr    0.185597  3.135589  2.305321
