36
Energy: -108382.266194 eV PBE+vdW (tier 2 basis)
C    -0.561642  -0.030415  0.356497
C    -0.565377  0.221778  1.838110
O    0.523298  0.768346  2.324520
H    -0.566259  0.927744  -0.181828
H    -1.415308  -0.633275  0.035225
H    0.360170  -0.551373  0.069044
N    -1.621901  -0.092278  2.543282
C    -1.611745  0.229624  3.976265
C    -0.689243  -0.725453  4.755008
O    0.475885  -0.346127  5.100727
H    -3.223321  -0.293158  1.696877
H    -1.155457  1.222706  4.140866
C    -3.060309  0.319727  4.496733
C    -3.956437  -0.893521  4.188161
C    -5.399566  -0.538996  3.814752
N    -5.571223  0.467103  2.743556
C    -5.213262  0.345077  1.448049
N    -6.003775  0.899742  0.511895
N    -4.094845  -0.293126  1.096757
H    -3.484461  1.210942  4.011250
H    -3.053916  0.535654  5.574092
H    -4.038518  -1.557063  5.062520
H    -3.523715  -1.493328  3.374840
H    -5.911436  -0.107639  4.683737
H    -5.942020  -1.455841  3.540292
H    -6.300041  1.150994  2.918903
H    -5.664449  1.075346  -0.426296
H    -6.978520  1.105295  0.696818
H    -3.963835  -0.501401  0.113000
N    -1.102034  -1.952929  5.042059
C    -0.296695  -2.953515  5.740495
H    -2.022511  -2.227288  4.715115
H    -0.964302  -3.714439  6.154313
H    0.259233  -2.478795  6.554842
H    0.411417  -3.436416  5.053905
Sr    1.987625  0.949968  3.941683
