36
Energy: -108381.537426 eV PBE+vdW (tier 2 basis)
C    -0.170440  0.655040  -0.011279
C    -0.254465  0.915164  1.457992
O    0.818173  1.011192  2.149932
H    -1.153696  0.648067  -0.492161
H    0.320147  -0.316204  -0.166010
H    0.465880  1.414151  -0.484576
N    -1.464797  1.037987  1.990408
C    -1.853456  1.132556  3.410008
C    -1.436676  2.477875  4.031967
O    -0.231112  2.721542  4.347378
H    -2.286801  0.841329  1.351553
H    -2.949862  1.132544  3.365860
C    -1.421833  -0.049348  4.315072
C    -1.619103  -1.476010  3.772823
C    -3.056297  -2.019362  3.636381
N    -3.913599  -1.314589  2.679593
C    -3.539044  -1.007227  1.389075
N    -2.676642  -1.897281  0.788707
N    -3.833976  0.093066  0.743796
H    -1.955889  0.075498  5.270592
H    -0.353627  0.059604  4.561272
H    -1.097606  -2.152357  4.466312
H    -1.099395  -1.581616  2.810094
H    -3.575213  -1.983013  4.603196
H    -2.992321  -3.088850  3.381573
H    -4.621378  -0.705720  3.071346
H    -2.742166  -2.869347  1.074222
H    -2.632201  -1.778658  -0.219044
H    -4.513252  0.663797  1.255346
N    -2.396638  3.364348  4.250099
C    -2.208122  4.683859  4.853439
H    -3.337532  3.120691  3.952855
H    -3.082620  4.920099  5.467864
H    -2.100847  5.449275  4.073850
H    -1.313258  4.671862  5.480768
Sr    1.891225  2.047185  3.811378
