36
Energy: -108382.082909 eV PBE+vdW (tier 2 basis)
C    -0.242206  0.622839  0.004836
C    -0.078955  0.535247  1.494375
O    0.945938  0.914056  2.077569
H    -0.289675  1.684723  -0.274137
H    -1.139276  0.119517  -0.372909
H    0.647028  0.204076  -0.480151
N    -1.128912  0.008305  2.208154
C    -1.228518  0.146626  3.661983
C    -0.309151  -0.840027  4.424920
O    -0.774035  -1.620762  5.331239
H    -1.955906  -0.277656  1.696786
H    -0.831295  1.146144  3.913267
C    -2.684076  0.089104  4.136736
C    -3.477843  -1.178021  3.773218
C    -4.718546  -1.341213  4.666891
N    -5.449006  -2.576864  4.458365
C    -5.207967  -3.748090  5.095486
N    -6.077066  -4.753843  4.854522
N    -4.163036  -3.881549  5.918385
H    -3.202843  0.976375  3.746929
H    -2.671689  0.225621  5.230554
H    -2.849187  -2.079980  3.838178
H    -3.817685  -1.142901  2.727630
H    -5.415264  -0.508684  4.498691
H    -4.456318  -1.271484  5.739036
H    -6.221782  -2.550384  3.803220
H    -5.921705  -5.679489  5.231498
H    -6.937156  -4.615465  4.337884
H    -4.247815  -4.792981  6.379707
N    0.966539  -0.788369  4.129523
C    2.002773  -1.606809  4.747462
H    1.205553  -0.081487  3.383950
H    1.809453  -2.674053  4.579791
H    2.058253  -1.414977  5.826731
H    2.962069  -1.346210  4.293174
Sr    -2.120689  -2.811174  6.676235
