36
Energy: -108381.824612 eV PBE+vdW (tier 2 basis)
C    0.235378  0.370624  -0.151460
C    -0.031782  0.136756  1.302221
O    0.935813  0.119869  2.128066
H    0.863233  -0.451051  -0.524821
H    0.812826  1.295087  -0.277894
H    -0.672791  0.426326  -0.760265
N    -1.296864  -0.059094  1.687028
C    -1.840270  -0.489072  2.989250
C    -1.761627  0.544910  4.113340
O    -0.664245  1.115742  4.455831
H    -1.985083  -0.006227  0.941393
H    -2.915917  -0.616891  2.805279
C    -1.330248  -1.878255  3.455904
C    -2.260455  -3.007456  2.961884
C    -3.069564  -3.705913  4.060930
N    -3.772174  -2.852099  5.047265
C    -4.899327  -2.096112  4.731648
N    -6.017221  -2.396575  5.448239
N    -4.801103  -1.111330  3.871813
H    -1.303529  -1.885876  4.555411
H    -0.300504  -2.035550  3.109487
H    -1.676506  -3.795052  2.466344
H    -2.945056  -2.617699  2.196341
H    -2.386668  -4.319022  4.664333
H    -3.773597  -4.401907  3.575998
H    -3.888100  -3.349645  5.926243
H    -6.840976  -1.811172  5.374964
H    -6.158366  -3.322446  5.834977
H    -5.721144  -0.740419  3.622824
N    -2.897873  0.717337  4.745742
C    -3.084995  1.544123  5.928412
H    -3.707166  0.094552  4.411931
H    -3.925444  2.228722  5.763064
H    -2.181577  2.123496  6.134802
H    -3.318927  0.909299  6.793142
Sr    1.549682  1.029117  4.106327
