36
Energy: -108381.856907 eV PBE+vdW (tier 2 basis)
C    -0.547647  0.660933  0.891628
C    -0.542656  0.115790  2.281998
O    0.471499  0.327114  3.040197
H    -1.518611  0.579227  0.395292
H    0.203958  0.134123  0.286415
H    -0.244693  1.715039  0.926506
N    -1.548158  -0.596882  2.761884
C    -2.784827  -1.095867  2.160258
C    -3.613242  -1.492481  3.418842
O    -3.001088  -1.639456  4.491246
H    -1.572174  -0.860940  3.770886
H    -3.288291  -0.295319  1.601764
C    -2.558882  -2.321007  1.236966
C    -1.779967  -3.488412  1.884874
C    -0.305308  -3.530587  1.439763
N    0.566964  -4.369309  2.262288
C    1.266831  -3.904838  3.320472
N    2.313294  -4.640657  3.772711
N    1.005346  -2.726076  3.892908
H    -2.049868  -1.980331  0.322258
H    -3.544617  -2.667797  0.903703
H    -2.254489  -4.441394  1.618450
H    -1.842214  -3.431061  2.982157
H    0.129663  -2.520667  1.435244
H    -0.235846  -3.901564  0.408571
H    0.688675  -5.339198  1.988935
H    2.542771  -4.590774  4.757785
H    2.595875  -5.488911  3.294973
H    0.043167  -2.466305  3.653344
N    -4.931564  -1.695152  3.299411
C    -5.795522  -1.526134  2.134846
H    -5.374665  -1.998176  4.165013
H    -5.367513  -0.810339  1.425754
H    -6.760000  -1.126275  2.465637
H    -5.973014  -2.480587  1.620573
Sr    2.010078  -0.615425  4.404932
