36
Energy: -108380.423781 eV PBE+vdW (tier 2 basis)
C    -1.568762  -1.224649  0.061802
C    -0.613095  -0.820039  1.134562
O    0.636059  -1.030785  1.011239
H    -2.588062  -1.370848  0.432982
H    -1.202999  -2.157220  -0.385235
H    -1.588746  -0.473293  -0.743115
N    -1.058984  -0.212668  2.256094
C    -2.044329  0.864515  2.255066
C    -1.338760  2.127034  1.677156
O    -0.118217  2.080635  1.305933
H    -0.362228  -0.145926  2.999759
H    -2.856329  0.591946  1.563375
C    -2.637524  1.065717  3.663294
C    -3.380233  -0.176064  4.157155
C    -4.048395  0.016190  5.535993
N    -4.786421  -1.162590  5.963012
C    -5.871618  -1.620071  5.193742
N    -6.830423  -0.635825  4.958696
N    -5.850610  -2.833907  4.773461
H    -3.330886  1.920618  3.636972
H    -1.830756  1.354880  4.358893
H    -2.695174  -1.035923  4.213030
H    -4.162024  -0.450762  3.430737
H    -4.728330  0.878890  5.498857
H    -3.293496  0.240583  6.303480
H    -4.190037  -1.961010  6.175362
H    -7.676812  -0.974823  4.512305
H    -7.035068  -0.036139  5.755135
H    -6.746852  -3.124189  4.371106
N    -2.039944  3.241487  1.581261
C    -1.524156  4.511979  1.062077
H    -3.006021  3.221607  1.898157
H    -2.329467  5.249945  1.096210
H    -1.191064  4.393745  0.024253
H    -0.688139  4.864721  1.677329
Sr    1.837662  0.938451  0.821531
