36
Energy: -108381.622629 eV PBE+vdW (tier 2 basis)
C    -0.174733  -0.607530  0.360372
C    -0.148788  -0.095158  1.763757
O    0.884495  0.490486  2.216131
H    -0.043564  0.243288  -0.323422
H    -1.102334  -1.129491  0.104071
H    0.676651  -1.281019  0.198030
N    -1.239366  -0.255141  2.523344
C    -1.465846  0.313979  3.867363
C    -0.724209  -0.551299  4.917930
O    0.521921  -0.287048  5.096974
H    -2.027419  -0.741152  2.101268
H    -0.947143  1.285025  3.888892
C    -2.967988  0.551687  4.059104
C    -3.318548  1.341880  5.330566
C    -4.794743  1.193132  5.761342
N    -5.232151  -0.207926  5.898796
C    -4.375521  -1.125743  6.489784
N    -3.845266  -0.736249  7.694186
N    -3.967530  -2.251631  5.961549
H    -3.483331  -0.420494  4.060342
H    -3.328836  1.094129  3.171988
H    -3.105382  2.410574  5.181862
H    -2.686330  1.010863  6.167851
H    -5.468073  1.658078  5.030366
H    -4.947537  1.739830  6.702295
H    -5.682382  -0.578044  5.067723
H    -3.428686  -1.491817  8.227787
H    -4.395451  -0.093059  8.253735
H    -4.436673  -2.436889  5.070935
N    -1.308391  -1.532867  5.557678
C    -0.593650  -2.381801  6.510828
H    -2.355455  -1.745612  5.523073
H    0.231593  -2.910956  6.018908
H    -1.311132  -3.111142  6.897325
H    -0.188632  -1.783789  7.337130
Sr    2.274917  0.631181  4.012773
