36
Energy: -108382.007459 eV PBE+vdW (tier 2 basis)
C    -1.154147  1.897255  -0.180506
C    -1.159982  0.696155  0.712459
O    -0.328416  -0.260896  0.500936
H    -0.152567  2.347240  -0.192949
H    -1.882857  2.654733  0.124199
H    -1.383575  1.580379  -1.207278
N    -2.028257  0.651303  1.699775
C    -2.277803  -0.398037  2.683624
C    -3.444145  0.218173  3.528422
O    -3.719964  1.410285  3.362237
H    -2.659060  1.454119  1.907838
H    -2.643254  -1.298863  2.165273
C    -1.053140  -0.774416  3.546892
C    -0.289021  0.420175  4.152042
C    1.192640  0.469859  3.773984
N    1.945332  -0.666469  4.310638
C    2.888613  -1.399116  3.671602
N    3.803069  -2.010124  4.458860
N    2.896273  -1.542403  2.339924
H    -0.369277  -1.389026  2.940464
H    -1.403075  -1.450413  4.337757
H    -0.379816  0.412329  5.247214
H    -0.737534  1.373132  3.837919
H    1.639867  1.404181  4.147215
H    1.321266  0.477954  2.684736
H    1.959205  -0.726226  5.324838
H    4.403965  -2.738421  4.094725
H    3.940296  -1.749784  5.428249
H    3.805733  -1.941150  2.083626
N    -4.057883  -0.600293  4.395769
C    -5.168813  -0.174078  5.247083
H    -3.815435  -1.585460  4.395988
H    -5.005325  -0.522154  6.272991
H    -6.118935  -0.577314  4.874525
H    -5.215225  0.917957  5.233747
Sr    1.483849  -1.560108  0.382017
