36
Energy: -108382.007119 eV PBE+vdW (tier 2 basis)
C    -1.284631  0.652333  2.660919
C    -0.601529  0.021051  3.833055
O    0.498378  0.522618  4.258039
H    -2.152443  0.095663  2.298002
H    -0.572254  0.799009  1.840092
H    -1.617933  1.654816  2.967377
N    -1.113699  -1.021067  4.463958
C    -2.204039  -1.924050  4.103184
C    -2.478551  -2.676243  5.437542
O    -1.593622  -2.652341  6.306185
H    -0.701643  -1.341901  5.361463
H    -3.087008  -1.358003  3.781355
C    -1.748198  -2.899987  2.987520
C    -0.594129  -3.825444  3.425438
C    0.479576  -4.085326  2.363955
N    1.203985  -2.879732  1.909335
C    2.045818  -2.142333  2.651183
N    2.603422  -0.959026  2.048200
N    2.401895  -2.294158  3.899534
H    -1.449166  -2.289017  2.122372
H    -2.610259  -3.491286  2.653126
H    -0.123268  -3.434406  4.337602
H    -0.988401  -4.807754  3.718718
H    0.036999  -4.521551  1.460173
H    1.208244  -4.820510  2.738501
H    1.204833  -2.707735  0.908929
H    3.556236  -1.142421  1.719760
H    2.062222  -0.607409  1.256373
H    2.110000  -3.176355  4.321841
N    -3.629460  -3.350389  5.578791
C    -4.757185  -3.457546  4.658718
H    -3.701480  -3.848638  6.464155
H    -5.683694  -3.510909  5.239954
H    -4.688093  -4.358278  4.033198
H    -4.825511  -2.576063  4.012588
Sr    2.695357  0.067742  4.560741
