36
Energy: -108382.409508 eV PBE+vdW (tier 2 basis)
C    -0.303654  0.520225  0.120867
C    -0.976048  -0.443911  1.042789
O    -0.364120  -1.431091  1.528260
H    0.167085  1.326916  0.705105
H    -0.994824  0.971886  -0.598848
H    0.498833  -0.002529  -0.410187
N    -2.284749  -0.257545  1.381956
C    -2.853073  1.040818  1.728824
C    -2.100590  1.563755  2.985345
O    -1.417258  0.759139  3.686000
H    -2.636855  -1.011799  1.972280
H    -2.686442  1.736025  0.894408
C    -4.376177  0.922866  1.974745
C    -4.787113  0.054511  3.183197
C    -5.109085  -1.429082  2.876328
N    -4.938497  -2.276850  4.057375
C    -3.724169  -2.598666  4.566033
N    -3.631125  -2.817903  5.902762
N    -2.610573  -2.655444  3.832205
H    -4.832637  0.552437  1.045270
H    -4.771623  1.936500  2.111108
H    -5.672020  0.501353  3.653999
H    -4.000868  0.088036  3.953116
H    -4.507790  -1.828946  2.047337
H    -6.147630  -1.538839  2.542958
H    -5.757634  -2.437714  4.635412
H    -4.433154  -2.677703  6.507641
H    -2.948768  -3.495263  6.224302
H    -2.852366  -2.901895  2.867425
N    -2.181743  2.846584  3.320828
C    -2.884107  3.940433  2.647343
H    -1.685653  3.086872  4.179034
H    -3.013060  3.729566  1.581805
H    -2.283614  4.850914  2.743765
H    -3.865913  4.117495  3.105037
Sr    -0.482284  -1.447543  3.925927
