36
Energy: -108382.211801 eV PBE+vdW (tier 2 basis)
C    0.344744  -1.412100  0.647973
C    0.156092  -0.719880  1.965247
O    1.233721  -0.220381  2.524662
H    0.723153  -0.700062  -0.098496
H    -0.582880  -1.865275  0.285795
H    1.104633  -2.198610  0.746091
N    -1.043003  -0.634837  2.489511
C    -1.118844  0.104536  3.748885
C    -0.307862  -0.551645  4.883695
O    0.594704  0.147457  5.460245
H    -2.446463  -0.605598  1.402115
H    -0.591271  1.069118  3.622573
C    -2.550428  0.533890  4.148983
C    -3.635312  -0.498772  4.478767
C    -4.206303  -1.322412  3.316427
N    -4.914114  -0.516665  2.317371
C    -4.499193  -0.269341  1.064246
N    -5.386290  0.215905  0.174727
N    -3.235144  -0.494478  0.706524
H    -2.903172  1.189287  3.336966
H    -2.444620  1.194954  5.021860
H    -3.296408  -1.196996  5.256053
H    -4.468691  0.048326  4.945815
H    -4.923956  -2.054276  3.712637
H    -3.432428  -1.891143  2.790333
H    -5.835198  -0.173031  2.569720
H    -5.084714  0.582504  -0.718868
H    -6.384260  0.144636  0.329682
H    -2.993713  -0.450405  -0.276024
N    -0.469740  -1.812533  5.277529
C    -1.270675  -2.891071  4.703265
H    0.123445  -2.065974  6.067625
H    -2.118868  -3.140780  5.352207
H    -0.637535  -3.780867  4.604595
H    -1.616800  -2.601654  3.709571
Sr    2.386993  0.756340  4.131149
