36
Energy: -108382.33754 eV PBE+vdW (tier 2 basis)
C    -0.912913  -0.041436  -0.376054
C    -0.647066  0.050045  1.095186
O    0.476481  0.471770  1.512793
H    -0.835947  0.966821  -0.806224
H    -1.897567  -0.455383  -0.616668
H    -0.137506  -0.652856  -0.854544
N    -1.622869  -0.307207  1.934996
C    -1.650077  -0.171692  3.410807
C    -0.895857  -1.363845  4.043941
O    0.415759  -1.269386  3.977337
H    -2.475802  -0.663350  1.510634
H    -1.073502  0.736814  3.648411
C    -3.121087  0.037076  3.806935
C    -3.417249  0.612665  5.202054
C    -3.124526  -0.304231  6.401322
N    -3.619227  -1.662043  6.204633
C    -4.747900  -2.184488  6.668630
N    -5.658361  -1.453277  7.336212
N    -4.997792  -3.493158  6.470740
H    -3.663887  -0.910361  3.666634
H    -3.545136  0.747245  3.081739
H    -4.484089  0.880937  5.209063
H    -2.871112  1.556494  5.351525
H    -3.530697  0.127254  7.325881
H    -2.042252  -0.394669  6.566221
H    -3.017603  -2.175396  5.505571
H    -6.386241  -1.898148  7.881381
H    -5.545702  -0.455719  7.451196
H    -5.914265  -3.888276  6.636459
N    -1.554005  -2.354352  4.543186
C    -0.776287  -3.477243  5.063427
H    -4.293027  -4.097788  6.070564
H    -1.421445  -4.118711  5.676123
H    0.078251  -3.153933  5.675504
H    -0.383018  -4.094141  4.241419
Sr    2.081811  -0.244251  2.980220
