36
Energy: -108382.18052 eV PBE+vdW (tier 2 basis)
C    0.696977  -1.963195  0.323284
C    0.241773  -1.030557  1.408414
O    0.411722  0.261101  1.170393
H    1.768065  -1.820423  0.124803
H    0.168204  -1.731024  -0.611378
H    0.518302  -3.005451  0.600043
N    -0.284167  -1.534870  2.486388
C    -0.791225  -0.625078  3.511064
C    0.379390  -0.068758  4.325946
O    0.879644  1.067974  4.047373
H    -4.670179  -5.653291  2.000301
H    -1.269704  0.270628  3.064975
C    -1.853805  -1.367328  4.343568
C    -3.068929  -1.715172  3.477990
C    -4.173982  -2.499816  4.195407
N    -3.819284  -3.877969  4.573255
C    -4.019519  -4.969812  3.825028
N    -3.933508  -6.187444  4.384257
N    -4.308304  -4.863995  2.521508
H    -2.161601  -0.752263  5.203570
H    -1.410164  -2.299352  4.732771
H    -2.712270  -2.261023  2.590173
H    -3.532093  -0.787421  3.106938
H    -5.079956  -2.545441  3.574960
H    -4.468253  -1.993522  5.124532
H    -3.440326  -4.029096  5.501460
H    -3.881133  -7.024243  3.816094
H    -4.001864  -6.313950  5.386619
H    -4.168090  -3.997359  2.019099
N    0.899068  -0.818223  5.291236
C    2.074576  -0.462355  6.080763
H    0.499308  -1.741810  5.422838
H    2.009728  -0.952329  7.056900
H    2.102950  0.621715  6.222509
H    2.997064  -0.785390  5.579476
Sr    1.107085  2.137112  2.009059
