36
Energy: -108381.480796 eV PBE+vdW (tier 2 basis)
C    -0.528522  0.392673  -0.026195
C    -0.467369  -0.107892  1.380974
O    0.372202  -1.015008  1.697508
H    0.450654  0.802689  -0.308087
H    -1.293257  1.161774  -0.172272
H    -0.724959  -0.453171  -0.698976
N    -1.306278  0.414537  2.272138
C    -1.506579  -0.005788  3.674309
C    -0.279387  0.320319  4.534679
O    0.702872  -0.493018  4.614762
H    -2.032200  1.069568  1.926543
H    -2.306431  0.659092  4.017282
C    -2.019746  -1.463252  3.846929
C    -3.366552  -1.533402  4.594965
C    -4.632872  -1.341666  3.724239
N    -4.525504  -0.327799  2.680182
C    -4.353173  1.013023  2.927492
N    -3.953580  1.754709  1.788820
N    -4.321045  1.610199  4.070913
H    -1.283106  -2.048891  4.419540
H    -2.110901  -1.932235  2.857175
H    -3.349020  -0.809648  5.423168
H    -3.465130  -2.516752  5.074771
H    -5.493271  -1.150788  4.385853
H    -4.852285  -2.281645  3.203231
H    -4.809292  -0.610629  1.749195
H    -4.124744  2.748275  1.944668
H    -4.390485  1.462330  0.915092
H    -4.657959  1.012554  4.828914
N    -0.238379  1.452244  5.219536
C    -1.189028  2.566860  5.295871
H    0.618819  1.567771  5.763476
H    -0.769602  3.438743  4.777658
H    -1.337592  2.824169  6.350730
H    -2.161941  2.317115  4.855302
Sr    1.657448  -2.032117  3.239186
