36
Energy: -108382.054041 eV PBE+vdW (tier 2 basis)
C    0.129553  -3.191255  2.011587
C    -0.280089  -1.903592  2.662769
O    0.549348  -0.882501  2.508179
H    0.258588  -3.038319  0.931345
H    1.101865  -3.520129  2.403413
H    -0.613677  -3.973658  2.185532
N    -1.402230  -1.854904  3.322065
C    -1.778436  -0.564224  3.888134
C    -0.872515  -0.193264  5.069403
O    -0.071760  0.795688  4.957598
H    -6.843852  -3.954073  1.471851
H    -1.597556  0.253346  3.161049
C    -3.286641  -0.541040  4.211548
C    -4.108432  -0.676353  2.925787
C    -5.628340  -0.669028  3.128632
N    -6.171877  -1.841414  3.834233
C    -6.619797  -2.963274  3.257649
N    -7.358859  -3.830049  3.968815
N    -6.340674  -3.234174  1.976024
H    -3.538369  0.400146  4.725444
H    -3.528570  -1.366553  4.894889
H    -3.785416  -1.590745  2.403427
H    -3.878240  0.162364  2.249814
H    -6.147014  -0.589210  2.162999
H    -5.936474  0.209140  3.711884
H    -6.269632  -1.780137  4.841642
H    -7.544748  -4.765416  3.627723
H    -7.829510  -3.547511  4.819783
H    -5.619356  -2.731388  1.475899
N    -0.854941  -0.903715  6.194334
C    -1.557276  -2.147657  6.505228
H    -0.215650  -0.544688  6.901778
H    -0.888197  -2.782286  7.096456
H    -1.801655  -2.671995  5.576415
H    -2.462475  -1.953686  7.095585
Sr    1.435354  0.974839  3.206796
