36
Energy: -108382.8046 eV PBE+vdW (tier 2 basis)
C    -0.344945  -1.014204  0.093148
C    -0.255782  -0.639230  1.536432
O    0.848250  -0.369496  2.080068
H    -1.367916  -1.212345  -0.243172
H    0.272748  -1.904534  -0.085277
H    0.082530  -0.203435  -0.511798
N    -1.397939  -0.588502  2.261049
C    -1.370969  -0.163195  3.656970
C    -0.857638  -1.288991  4.580897
O    0.290372  -1.142840  5.095441
H    -2.280825  -0.794038  1.802615
H    -0.558631  0.575174  3.684302
C    -2.615050  0.614528  4.150751
C    -2.202177  2.048882  4.524167
C    -1.218669  2.087849  5.714543
N    -0.390737  3.283572  5.760572
C    0.684278  3.529142  4.971820
N    1.086038  4.822299  4.901927
N    1.304520  2.556056  4.298063
H    -3.074224  0.112644  5.013601
H    -3.382829  0.645723  3.365010
H    -3.092716  2.647328  4.756461
H    -1.728620  2.518379  3.648551
H    -0.557683  1.210721  5.719184
H    -1.767038  2.039047  6.663675
H    -0.718932  4.046705  6.341058
H    0.549259  5.574793  5.315826
H    2.011106  5.058960  4.567590
H    1.926083  3.020210  3.625850
N    -1.574785  -2.379410  4.824692
C    -2.881241  -2.766064  4.296940
H    -1.111282  -3.054980  5.433319
H    -2.769686  -3.541263  3.527678
H    -3.403310  -1.905808  3.871532
H    -3.494855  -3.164975  5.112429
Sr    1.996350  0.189253  4.094148
