36
Energy: -108382.864151 eV PBE+vdW (tier 2 basis)
C    -1.166648  -2.004548  -0.621698
C    -0.835795  -1.411877  0.710785
O    0.301992  -0.924342  0.942786
H    -0.475679  -2.832635  -0.828907
H    -0.996743  -1.246864  -1.398301
H    -2.196117  -2.370116  -0.695255
N    -1.795654  -1.407993  1.660329
C    -1.628014  -0.801185  2.984319
C    -0.854182  -1.757691  3.919409
O    0.405450  -1.674950  3.936708
H    -2.690999  -1.832184  1.432319
H    -0.923420  0.020297  2.834507
C    -2.944000  -0.199488  3.510164
C    -3.289719  1.145336  2.836407
C    -2.676981  2.401518  3.501649
N    -1.254730  2.309251  3.855253
C    -0.208837  2.178878  3.001222
N    -0.443427  2.384501  1.673597
N    0.999666  1.760536  3.370427
H    -2.862263  -0.065194  4.599231
H    -3.772703  -0.909332  3.357196
H    -4.378213  1.291281  2.852810
H    -3.017594  1.097136  1.771334
H    -3.199684  2.612263  4.442521
H    -2.854165  3.283367  2.867187
H    -1.048378  2.102837  4.825609
H    0.371344  2.625648  1.120298
H    -1.290006  2.867920  1.394663
H    1.097482  1.824965  4.388557
N    -1.531151  -2.635891  4.649987
C    -0.933373  -3.625474  5.547259
H    -2.545540  -2.624190  4.584840
H    -1.137417  -4.637843  5.177541
H    -1.359829  -3.517961  6.551217
H    0.145668  -3.461405  5.587243
Sr    1.916941  -0.404014  2.568119
