36
Energy: -108382.333036 eV PBE+vdW (tier 2 basis)
C    -0.937300  2.716579  1.555174
C    -0.646852  1.505191  2.395968
O    0.147595  1.575721  3.362088
H    -0.000131  3.222445  1.294184
H    -1.514782  3.423385  2.169334
H    -1.509799  2.506859  0.644735
N    -1.266963  0.356772  2.024828
C    -1.560578  -0.888620  2.763165
C    -0.550958  -1.323308  3.823031
O    0.694054  -1.204053  3.673998
H    -1.916240  0.478177  1.250713
H    -2.516009  -0.711578  3.280104
C    -1.827476  -2.052756  1.761310
C    -0.671230  -2.896245  1.195185
C    0.328274  -2.263768  0.188237
N    1.686652  -2.147981  0.729762
C    2.350585  -1.054155  1.147122
N    1.833565  0.231422  0.855822
N    3.423359  -1.006293  1.899918
H    -2.431640  -1.638641  0.937663
H    -2.504580  -2.751306  2.272340
H    -1.154104  -3.742940  0.688983
H    -0.100238  -3.347040  2.020167
H    -0.015276  -1.283174  -0.162386
H    0.386689  -2.891432  -0.710101
H    2.089745  -3.027336  1.043709
H    2.542144  0.787683  0.374502
H    0.969703  0.240274  0.319530
H    3.867229  -1.913982  2.053792
N    -1.040658  -1.945921  4.898141
C    -2.433477  -2.197157  5.283144
H    -0.322599  -2.313944  5.519655
H    -3.021210  -1.271491  5.277776
H    -2.433174  -2.586949  6.304907
H    -2.907013  -2.944171  4.634076
Sr    2.295371  0.536563  3.542926
