36
Energy: -108381.697766 eV PBE+vdW (tier 2 basis)
C    0.778845  -0.755279  1.146517
C    0.167060  0.127245  2.189817
O    0.822907  1.139397  2.618369
H    1.859239  -0.835761  1.307995
H    0.639584  -0.271630  0.167193
H    0.335271  -1.753895  1.093880
N    -1.042056  -0.098759  2.680815
C    -2.045230  -1.126614  2.395467
C    -3.355582  -0.291488  2.255957
O    -3.418692  0.763444  2.898509
H    -1.502105  0.669696  3.199422
H    -1.791271  -1.673333  1.480688
C    -2.254262  -2.078017  3.599231
C    -1.133877  -3.036655  4.040998
C    0.211625  -2.453651  4.506615
N    0.039583  -1.289933  5.392118
C    0.915188  -0.290549  5.575650
N    2.235179  -0.418913  5.053409
N    0.701874  0.886512  6.120306
H    -3.125715  -2.706078  3.364855
H    -2.593609  -1.455230  4.443656
H    -0.902184  -3.749487  3.236525
H    -1.548349  -3.645335  4.857985
H    0.797051  -2.145792  3.628560
H    0.777454  -3.242741  5.023097
H    -0.905806  -1.112158  5.719837
H    2.911575  -0.417614  5.820952
H    2.393415  -1.252193  4.488089
H    -0.200575  0.981557  6.590312
N    -4.355603  -0.778616  1.505358
C    -4.353039  -1.977487  0.669842
H    -5.192739  -0.199721  1.505184
H    -3.604569  -1.915921  -0.131654
H    -5.335808  -2.064267  0.198303
H    -4.189078  -2.890532  1.257775
Sr    1.858345  2.176293  4.362086
