36
Energy: -108381.963867 eV PBE+vdW (tier 2 basis)
C    -1.459826  2.566308  0.137550
C    -0.575833  2.051004  1.235369
O    0.532890  2.549975  1.483727
H    -1.839510  3.553443  0.437578
H    -2.313736  1.916733  -0.085118
H    -0.861396  2.714308  -0.768324
N    -1.044646  0.985456  1.961178
C    -0.532600  0.573329  3.272402
C    0.867050  -0.092899  3.238522
O    1.153429  -1.057090  4.039948
H    -1.958737  0.629151  1.705482
H    -0.369571  1.490652  3.870333
C    -1.578177  -0.284404  3.996846
C    -2.117844  -1.490716  3.203864
C    -2.597732  -2.632272  4.109228
N    -1.442441  -3.278878  4.732039
C    -1.252824  -3.623746  6.029104
N    -2.334660  -3.772009  6.818417
N    0.008647  -3.750508  6.459439
H    -2.411838  0.368592  4.290011
H    -1.122915  -0.631624  4.934253
H    -1.353197  -1.889999  2.516940
H    -2.964590  -1.197183  2.567265
H    -3.178007  -3.362972  3.527360
H    -3.249928  -2.242057  4.902375
H    -0.691362  -3.539438  4.103224
H    -2.227849  -3.901154  7.817127
H    -3.251008  -3.963120  6.429859
H    0.045304  -4.307279  7.317048
N    1.757018  0.431494  2.432141
C    3.137781  -0.015373  2.320398
H    1.438915  1.330356  1.957483
H    3.183485  -1.096524  2.138701
H    3.708900  0.229470  3.227988
H    3.601242  0.500918  1.475251
Sr    1.853665  -2.385483  5.718194
