36
Energy: -108382.998986 eV PBE+vdW (tier 2 basis)
C    0.097027  -0.781455  0.085876
C    -0.621996  -0.884585  1.396576
O    -0.701369  -1.980020  2.005452
H    -0.390089  -1.451557  -0.635476
H    1.126322  -1.141375  0.212268
H    0.119556  0.231683  -0.328745
N    -1.179758  0.247836  1.885337
C    -2.014031  0.379535  3.097609
C    -1.131103  0.201933  4.347566
O    -0.843805  -0.942908  4.787734
H    -1.074377  1.081565  1.315921
H    -2.360944  1.419577  3.086651
C    -3.268470  -0.518658  3.013966
C    -4.191406  -0.594097  4.243330
C    -3.878491  -1.652870  5.307849
N    -3.684063  -3.010915  4.693185
C    -3.469979  -4.062846  5.648832
N    -4.556162  -4.701458  6.119971
N    -2.220681  -4.306090  5.925579
H    -2.985442  -1.527882  2.692273
H    -3.849151  -0.113292  2.174322
H    -5.210271  -0.776884  3.870111
H    -4.252533  0.378793  4.754645
H    -4.709287  -1.672644  6.030592
H    -2.969014  -1.418572  5.872085
H    -4.495940  -3.230220  4.108981
H    -4.470601  -5.495223  6.746895
H    -5.494335  -4.359241  5.948266
H    -2.085811  -4.991019  6.672208
N    -0.660887  1.290268  4.956423
C    -0.842578  2.700470  4.598707
H    -0.063350  1.090918  5.757902
H    -0.318312  3.305450  5.343581
H    -1.900755  2.988510  4.618021
H    -0.409169  2.925544  3.616285
Sr    -0.946075  -3.190661  4.058912
