36
Energy: -108381.893776 eV PBE+vdW (tier 2 basis)
C    -2.134556  -0.868083  0.309160
C    -1.598585  -0.701415  1.702506
O    -0.522203  0.038625  1.816064
H    -3.024638  -1.502406  0.275687
H    -1.358630  -1.296686  -0.339404
H    -2.388178  0.116134  -0.107629
N    -2.215061  -1.296702  2.692500
C    -1.664825  -1.181570  4.064569
C    -1.588465  0.280851  4.537259
O    -0.493423  0.927032  4.604938
H    -3.454617  -2.700121  2.288477
H    -2.421819  -1.644603  4.715315
C    -0.333438  -1.961746  4.251835
C    -0.365244  -3.216054  5.157950
C    -1.565694  -4.174711  5.028171
N    -2.073012  -4.233778  3.645211
C    -3.375458  -4.419769  3.342987
N    -4.084290  -5.348229  3.998872
N    -3.911437  -3.631714  2.409757
H    0.430153  -1.296848  4.682103
H    0.035038  -2.236963  3.252924
H    -0.322985  -2.915580  6.213744
H    0.563342  -3.771319  4.968795
H    -2.391684  -3.851186  5.679414
H    -1.255806  -5.171005  5.372005
H    -1.605888  -3.623014  2.980154
H    -3.616282  -6.110816  4.474919
H    -5.088110  -5.420678  3.883272
H    -4.798168  -3.848724  1.969755
N    -2.719663  0.887662  4.883149
C    -4.074583  0.335100  4.877367
H    -2.607685  1.844753  5.214119
H    -4.211559  -0.320006  4.011485
H    -4.782900  1.165352  4.797187
H    -4.284409  -0.209855  5.807753
Sr    0.966615  1.251555  2.856800
