36
Energy: -108382.991438 eV PBE+vdW (tier 2 basis)
C    -0.569862  -1.527938  0.247758
C    -0.438291  -0.756800  1.529274
O    0.657782  -0.231065  1.841689
H    -0.312416  -0.869778  -0.592501
H    -1.567179  -1.946854  0.078470
H    0.164857  -2.343993  0.251691
N    -1.547418  -0.671535  2.296483
C    -1.798971  -0.041480  3.613987
C    -1.474537  1.464851  3.640422
O    -0.310558  1.926774  3.528641
H    -2.356374  -1.151315  1.913858
H    -2.891969  -0.103539  3.703944
C    -1.279217  -0.861849  4.826852
C    0.217316  -1.191741  4.946468
C    1.068489  -0.134440  5.666106
N    2.454441  -0.116728  5.096531
C    3.318099  0.912517  5.587103
N    4.220255  0.574531  6.525436
N    3.157590  2.070803  5.010119
H    -1.831718  -1.810822  4.783139
H    -1.639228  -0.360688  5.739344
H    0.636304  -1.384836  3.950501
H    0.304247  -2.142074  5.490304
H    1.093249  -0.330586  6.749272
H    0.656336  0.874767  5.542998
H    2.883512  -1.040004  5.186687
H    4.923790  1.234983  6.840055
H    4.173372  -0.308818  7.019792
H    3.702367  2.826814  5.428530
N    -2.514903  2.274202  3.836978
C    -2.402914  3.728801  3.942741
H    -3.443314  1.868836  3.899099
H    -3.326391  4.119059  4.378778
H    -2.254405  4.179686  2.953153
H    -1.556754  3.991153  4.586346
Sr    1.924419  1.470106  2.894954
