36
Energy: -108381.862443 eV PBE+vdW (tier 2 basis)
C    0.321985  -1.404167  1.486010
C    0.452092  0.066421  1.733257
O    1.471066  0.698199  1.308018
H    0.067053  -1.601417  0.434172
H    -0.420576  -1.887409  2.127326
H    1.305293  -1.858566  1.662948
N    -0.508037  0.727504  2.415424
C    -1.936612  0.559423  2.089406
C    -2.256785  1.541049  0.918900
O    -1.266342  1.753445  0.071274
H    -0.240202  1.686141  2.642112
H    -2.040258  -0.450403  1.665752
C    -2.852027  0.641705  3.311061
C    -2.939546  2.019080  4.006390
C    -4.381890  2.439913  4.302173
N    -5.135427  2.484119  3.047564
C    -6.450503  2.643517  2.957389
N    -7.189622  2.982039  4.026646
N    -7.060235  2.459266  1.769824
H    -2.519956  -0.122547  4.025862
H    -3.848247  0.321672  2.977603
H    -2.479870  2.804910  3.387363
H    -2.389689  2.011204  4.955389
H    -4.378835  3.428087  4.789686
H    -4.852107  1.721009  4.993605
H    -4.574737  2.290443  2.170690
H    -8.200745  2.998171  3.987014
H    -6.756801  3.282355  4.889774
H    -8.028987  2.710411  1.623555
N    -3.435844  2.053903  0.841595
C    -3.726825  2.919376  -0.298623
H    -6.566020  2.021637  1.003854
H    -3.844909  2.333169  -1.222483
H    -2.935655  3.663151  -0.476350
H    -4.663280  3.461099  -0.117400
Sr    0.845883  2.014756  -0.520902
