36
Energy: -108380.292926 eV PBE+vdW (tier 2 basis)
C    0.312205  0.397848  0.074797
C    -0.103452  -0.046621  1.438393
O    0.743527  -0.528876  2.254400
H    -0.504085  0.356916  -0.653629
H    1.139781  -0.238357  -0.259762
H    0.694709  1.430563  0.109358
N    -1.390045  0.078987  1.834561
C    -2.199737  1.266762  1.576067
C    -1.532666  2.452866  2.338200
O    -0.557205  2.248536  3.132500
H    -1.607272  -0.397767  2.710988
H    -2.170387  1.493308  0.499137
C    -3.663167  1.051357  2.013382
C    -4.473175  0.037879  1.192709
C    -4.109001  -1.456611  1.387652
N    -5.195655  -2.366183  1.129978
C    -6.264070  -2.479754  2.026702
N    -7.308188  -3.233788  1.534911
N    -6.354565  -1.950651  3.202481
H    -4.174700  2.023234  1.965548
H    -3.672319  0.771283  3.082088
H    -4.433366  0.298292  0.123711
H    -5.521938  0.163940  1.496909
H    -3.777874  -1.626819  2.428422
H    -3.268403  -1.745906  0.741822
H    -5.411173  -2.551162  0.155348
H    -8.031895  -3.411439  2.224240
H    -7.084740  -4.036033  0.955276
H    -5.572398  -1.331143  3.419850
N    -2.009328  3.666810  2.135801
C    -1.516279  4.880138  2.796237
H    -2.787197  3.770489  1.488619
H    -2.110161  5.727999  2.445987
H    -0.463348  5.051864  2.543494
H    -1.622773  4.791725  3.883671
Sr    1.124314  0.919299  4.028339
