36
Energy: -108381.883118 eV PBE+vdW (tier 2 basis)
C    0.197332  0.461834  0.742640
C    -0.074442  0.198084  2.192749
O    0.970702  0.262956  3.006131
H    -0.719674  0.390167  0.152146
H    0.936691  -0.254941  0.359604
H    0.633308  1.462811  0.620713
N    -1.289769  -0.068603  2.580408
C    -1.464462  -0.251761  4.012180
C    -0.758536  -1.519340  4.527046
O    0.135062  -1.391035  5.432865
H    -6.986301  0.617310  0.614475
H    -0.929644  0.544562  4.566690
C    -2.942075  -0.070565  4.440802
C    -4.012358  -0.853496  3.678305
C    -5.446350  -0.419992  4.018390
N    -5.802347  0.949212  3.612227
C    -6.362252  1.301496  2.448504
N    -6.910254  2.519484  2.313282
N    -6.386849  0.451378  1.413681
H    -3.129040  1.006336  4.304923
H    -3.025216  -0.268242  5.521326
H    -3.959124  -1.924511  3.917023
H    -3.822274  -0.754193  2.598391
H    -5.615611  -0.470700  5.102430
H    -6.175681  -1.105528  3.564747
H    -5.665117  1.690831  4.290005
H    -7.156819  2.887148  1.402349
H    -7.161540  3.077858  3.119846
H    -5.804379  -0.375165  1.396763
N    -0.981056  -2.737136  4.035132
C    -1.762738  -3.153894  2.873251
H    -0.435160  -3.463620  4.497132
H    -2.659714  -3.705823  3.180739
H    -1.143712  -3.817902  2.258121
H    -2.026950  -2.276457  2.277788
Sr    2.000073  -0.113570  4.887250
