36
Energy: -108381.364169 eV PBE+vdW (tier 2 basis)
C    -0.976701  -0.072500  0.198159
C    -0.853534  0.302458  1.637763
O    0.110049  1.053824  2.019529
H    -1.020206  0.841668  -0.408971
H    -1.857199  -0.687504  -0.005816
H    -0.076607  -0.620289  -0.112601
N    -1.752648  -0.151544  2.506989
C    -1.751090  0.262974  3.916745
C    -0.514929  -0.292730  4.653982
O    0.411703  0.532431  4.966400
H    -2.596562  -0.681718  2.141397
H    -1.596877  1.354337  3.933648
C    -3.090369  -0.034124  4.610619
C    -4.293409  0.609419  3.891821
C    -5.555334  -0.291950  3.843591
N    -5.304561  -1.721478  3.673397
C    -4.516158  -2.341942  2.732839
N    -4.125063  -1.519957  1.630182
N    -4.038875  -3.533680  2.749178
H    -3.013987  0.321925  5.646824
H    -3.244226  -1.117822  4.668900
H    -4.574105  1.552655  4.378383
H    -4.012762  0.882915  2.865835
H    -6.232565  0.092624  3.063979
H    -6.108344  -0.202017  4.786004
H    -5.636280  -2.328006  4.413135
H    -3.864877  -2.161055  0.877753
H    -4.877545  -0.912907  1.299237
H    -4.314460  -4.066318  3.578325
N    -0.367518  -1.572663  4.957909
C    -1.215789  -2.735024  4.672316
H    0.485249  -1.766055  5.484341
H    -1.885195  -2.940167  5.517242
H    -0.560119  -3.600598  4.531620
H    -1.803434  -2.605228  3.759561
Sr    1.520020  1.943223  3.542450
