36
Energy: -108382.883049 eV PBE+vdW (tier 2 basis)
C    0.338821  1.439998  1.583721
C    -0.006694  0.251893  2.421917
O    0.826012  -0.249144  3.225406
H    -0.481966  1.773451  0.940302
H    1.210413  1.200824  0.960030
H    0.636925  2.265301  2.244390
N    -1.245132  -0.276862  2.306380
C    -1.689609  -1.374042  3.166134
C    -1.170535  -2.729430  2.628227
O    -0.135685  -3.208969  3.174628
H    -1.902591  0.167037  1.671129
H    -1.117493  -1.251786  4.090781
C    -3.166199  -1.286057  3.579083
C    -3.502836  -2.176432  4.790854
C    -2.989715  -1.670346  6.151617
N    -1.533622  -1.733381  6.332146
C    -0.797170  -2.820154  6.716975
N    -1.458345  -3.893169  7.203442
N    0.518282  -2.770025  6.534803
H    -3.837285  -1.531628  2.747299
H    -3.370730  -0.233988  3.833760
H    -4.597286  -2.236924  4.869089
H    -3.160602  -3.210599  4.625687
H    -3.505429  -2.214154  6.956829
H    -3.274004  -0.619077  6.292029
H    -1.039163  -0.855062  6.432974
H    -0.946676  -4.736027  7.433381
H    -2.381890  -3.804822  7.611006
H    0.984206  -3.466312  7.123495
N    -1.741962  -3.373335  1.613793
C    -2.889677  -3.007652  0.782935
H    -1.277950  -4.251011  1.380049
H    -3.830286  -3.374615  1.213110
H    -2.756601  -3.468866  -0.200767
H    -2.947122  -1.925400  0.636181
Sr    1.610569  -2.160075  4.404865
