36
Energy: -108381.118764 eV PBE+vdW (tier 2 basis)
C    0.043740  -0.342752  -0.819238
C    0.070512  -0.647810  0.639744
O    1.172024  -0.803673  1.261968
H    0.545679  0.613405  -1.024976
H    -0.969695  -0.334001  -1.230983
H    0.638370  -1.115714  -1.327658
N    -1.085076  -0.741860  1.328877
C    -2.196316  0.204956  1.167456
C    -1.627655  1.599738  1.457337
O    -0.602191  1.720525  2.227264
H    -0.984462  -1.128408  2.269535
H    -2.621525  0.119361  0.135876
C    -3.299894  -0.227013  2.163745
C    -4.667703  0.455586  2.101731
C    -5.482737  0.259887  0.802693
N    -5.387453  -1.056232  0.195242
C    -4.710255  -1.265764  -0.984552
N    -5.075121  -2.405028  -1.655526
N    -3.761473  -0.438641  -1.346043
H    -2.908191  -0.131732  3.190696
H    -3.443939  -1.300802  1.970646
H    -4.591329  1.534601  2.307424
H    -5.240493  0.044903  2.946067
H    -5.173802  0.975105  0.034471
H    -6.536666  0.473658  1.028065
H    -6.067675  -1.755048  0.468331
H    -4.614465  -2.606655  -2.533947
H    -6.028895  -2.743681  -1.590728
H    -3.459803  -0.635978  -2.301804
N    -2.158903  2.685383  0.923806
C    -3.196060  2.802188  -0.104340
H    -1.744103  3.559174  1.249655
H    -3.376528  1.834013  -0.587477
H    -2.850344  3.519081  -0.857947
H    -4.125563  3.182349  0.336713
Sr    1.437630  0.877656  2.841135
