36
Energy: -108381.720142 eV PBE+vdW (tier 2 basis)
C    -1.089946  0.197121  2.699480
C    -0.084729  1.302166  2.769596
O    1.158520  1.050045  2.834565
H    -1.318100  -0.032581  1.645975
H    -2.029880  0.461787  3.195484
H    -0.664965  -0.702285  3.156026
N    -0.501781  2.587319  2.725485
C    -1.510660  3.049655  1.752396
C    -1.087296  2.578361  0.338016
O    0.204665  2.414679  0.124567
H    0.251504  3.258437  2.880534
H    -2.467596  2.562655  1.977207
C    -1.661953  4.578650  1.933757
C    -2.179061  5.442084  0.772285
C    -3.535927  5.124365  0.121055
N    -4.601580  4.722840  1.043135
C    -5.251986  3.546146  0.998704
N    -6.438744  3.441570  1.628275
N    -4.722721  2.492357  0.375329
H    -0.671094  4.991468  2.183906
H    -2.279460  4.737549  2.829033
H    -1.444043  5.450900  -0.046346
H    -2.200724  6.472745  1.155129
H    -3.424816  4.325625  -0.615662
H    -3.877794  6.014288  -0.425881
H    -5.004087  5.441338  1.636732
H    -6.889612  2.543042  1.745140
H    -6.985747  4.261031  1.862006
H    -5.316119  1.693418  0.185188
N    -2.042976  2.350881  -0.495102
C    -1.720142  1.945824  -1.859637
H    -3.717823  2.459244  0.025115
H    -2.546514  2.224080  -2.524042
H    -1.609027  0.851930  -1.921590
H    -0.794402  2.404904  -2.232692
Sr    2.154865  1.594982  0.776328
