36
Energy: -108382.06584 eV PBE+vdW (tier 2 basis)
C    0.434288  -0.479899  -0.325193
C    0.015674  -0.061075  1.049819
O    0.764003  -0.320967  2.058388
H    1.400478  -0.018905  -0.570624
H    -0.293700  -0.202056  -1.093796
H    0.572746  -1.569250  -0.346241
N    -1.133615  0.570665  1.189756
C    -1.772627  1.054902  2.412031
C    -3.273270  1.129461  1.993458
O    -3.525105  1.368489  0.812560
H    -1.738863  0.764242  0.374898
H    -1.600321  0.333993  3.224824
C    -1.231152  2.463592  2.772742
C    -1.719594  3.068864  4.104866
C    -0.738686  2.972197  5.277343
N    -0.433422  1.592978  5.692931
C    0.706705  0.930050  5.449045
N    0.732459  -0.473320  5.748133
N    1.810253  1.351937  4.886802
H    -1.513319  3.128314  1.944890
H    -0.132031  2.415836  2.760166
H    -2.693452  2.650212  4.398779
H    -1.911840  4.141005  3.959795
H    -1.143176  3.494868  6.154050
H    0.203979  3.478070  5.031186
H    -1.108933  1.148270  6.307897
H    1.303780  -0.657263  6.577689
H    -0.188645  -0.888625  5.894541
H    1.864585  2.363427  4.763996
N    -4.196753  0.968165  2.960046
C    -5.634839  1.055195  2.703564
H    -3.894705  0.659381  3.876429
H    -6.121222  1.614262  3.510276
H    -6.082189  0.055487  2.632316
H    -5.784162  1.578367  1.755190
Sr    2.382578  -0.641001  3.584664
