36
Energy: -108381.265526 eV PBE+vdW (tier 2 basis)
C    2.677456  -0.946435  3.091294
C    1.377988  -0.960025  3.823900
O    1.169779  -1.788456  4.767055
H    3.485264  -0.738237  3.806995
H    2.713322  -0.204394  2.287272
H    2.870840  -1.943234  2.673126
N    0.427270  -0.080522  3.484296
C    -0.833645  0.074188  4.224949
C    -1.746533  -1.154388  4.021832
O    -1.859969  -1.972803  5.005042
H    0.634671  0.592667  2.750141
H    -0.573097  0.034384  5.294615
C    -1.495937  1.433018  3.960988
C    -2.655632  1.698845  4.933187
C    -3.536462  2.894713  4.522642
N    -4.253701  2.663749  3.274990
C    -3.745325  2.994657  2.023531
N    -3.278941  4.289310  1.925176
N    -3.727444  2.079301  1.103884
H    -1.849211  1.497430  2.922939
H    -0.724688  2.208474  4.087143
H    -2.264055  1.871561  5.948655
H    -3.305949  0.809224  5.001229
H    -2.924574  3.799160  4.412727
H    -4.258034  3.094557  5.326847
H    -4.764846  1.786098  3.229362
H    -2.969060  4.587494  1.007048
H    -3.794304  5.003298  2.432184
H    -3.550828  2.469133  0.173949
N    -2.383315  -1.396694  2.890951
C    -2.339415  -0.700182  1.599150
H    -2.983649  -2.220875  2.933148
H    -2.673999  -1.410959  0.837306
H    -1.312016  -0.407072  1.359290
H    -2.997450  0.196770  1.558625
Sr    -0.182140  -2.998082  6.154161
