36
Energy: -108381.849154 eV PBE+vdW (tier 2 basis)
C    0.170830  -1.115373  0.682820
C    -0.035386  0.025156  1.630649
O    0.886398  0.884524  1.804907
H    0.111181  -0.771340  -0.360414
H    -0.541246  -1.932848  0.827276
H    1.190784  -1.491396  0.834101
N    -1.196827  0.142042  2.309021
C    -2.499118  0.017654  1.630821
C    -2.838257  1.428946  1.059479
O    -1.802810  2.117099  0.610109
H    -1.167885  0.864128  3.030571
H    -2.331338  -0.632953  0.758774
C    -3.572319  -0.619488  2.518916
C    -4.719189  -1.270195  1.707966
C    -6.115395  -0.947362  2.234142
N    -6.357241  0.491271  2.107622
C    -7.473130  1.100202  2.489585
N    -8.525750  0.402572  2.946529
N    -7.556076  2.445823  2.442234
H    -3.962192  0.138990  3.213115
H    -3.082664  -1.382281  3.137201
H    -4.604362  -2.361315  1.708243
H    -4.672472  -0.958203  0.654451
H    -6.210229  -1.255131  3.289348
H    -6.857344  -1.511943  1.646463
H    -5.551013  1.049267  1.718877
H    -9.350517  0.864006  3.307964
H    -8.525992  -0.608350  2.944391
H    -8.445070  2.919832  2.535202
N    -4.066117  1.818447  1.046988
C    -4.367486  3.105678  0.428084
H    -6.777449  2.990454  2.097761
H    -5.401879  3.097199  0.058629
H    -3.709679  3.340731  -0.419982
H    -4.273672  3.923953  1.160926
Sr    0.274993  2.862382  0.719181
