36
Energy: -108381.726908 eV PBE+vdW (tier 2 basis)
C    -0.486769  -0.158544  0.366084
C    -0.312396  -0.110635  1.851385
O    0.843565  -0.000535  2.366806
H    -0.647877  0.859243  -0.023888
H    -1.343610  -0.771935  0.068121
H    0.429119  -0.550780  -0.087237
N    -1.399224  -0.155343  2.651564
C    -2.613329  0.627603  2.370144
C    -2.220250  2.121360  2.197750
O    -1.054830  2.491787  2.692562
H    -1.165361  -0.209666  3.644011
H    -3.059665  0.277795  1.431004
C    -3.597989  0.395251  3.537443
C    -4.949196  1.114753  3.450057
C    -6.051337  0.434315  2.636390
N    -5.774606  0.104174  1.214677
C    -5.880175  0.983936  0.189026
N    -6.429959  0.560914  -0.964609
N    -5.422857  2.225248  0.324766
H    -3.097215  0.723128  4.463347
H    -3.748702  -0.691126  3.635676
H    -4.807560  2.150431  3.117232
H    -5.357145  1.190776  4.468636
H    -6.955376  1.058736  2.680001
H    -6.304836  -0.528047  3.098857
H    -5.973152  -0.858386  0.961626
H    -6.337643  1.101515  -1.816649
H    -7.074230  -0.221062  -0.985387
H    -5.662569  2.898152  -0.396211
N    -3.062289  2.886373  1.594504
C    -2.753615  4.309038  1.472560
H    -4.546290  2.439927  0.909850
H    -3.647760  4.846823  1.137611
H    -1.960567  4.481575  0.728537
H    -2.423545  4.746647  2.425291
Sr    1.073545  2.180413  3.201363
