36
Energy: -108380.872646 eV PBE+vdW (tier 2 basis)
C    -0.037119  1.060323  0.625224
C    -0.238638  0.074397  1.728228
O    0.755197  -0.513111  2.258924
H    -0.881735  1.746793  0.499920
H    0.078223  0.492360  -0.313845
H    0.884368  1.628942  0.786165
N    -1.499273  -0.191828  2.100090
C    -2.022184  -1.318987  2.906871
C    -1.705333  -1.155493  4.402189
O    -0.521504  -1.304352  4.840057
H    -2.210508  0.332772  1.597727
H    -3.112311  -1.243680  2.790094
C    -1.607932  -2.719966  2.400922
C    -2.253075  -3.161145  1.078599
C    -1.889312  -2.319920  -0.147501
N    -2.294354  -2.990953  -1.374637
C    -2.046156  -2.311417  -2.591841
N    -0.690109  -2.006799  -2.775433
N    -3.044498  -2.028020  -3.337559
H    -1.888190  -3.439046  3.185577
H    -0.511228  -2.773404  2.303771
H    -3.347765  -3.197105  1.201729
H    -1.938604  -4.197458  0.886742
H    -0.800369  -2.160559  -0.182863
H    -2.356207  -1.313617  -0.079169
H    -3.288419  -3.225933  -1.374577
H    -0.064656  -2.782484  -2.563240
H    -0.487051  -1.616969  -3.691907
H    -2.770858  -1.670810  -4.257534
N    -2.721889  -0.906548  5.212427
C    -2.643733  -0.779379  6.668122
H    -3.641421  -0.793445  4.792270
H    -3.417180  -1.406419  7.125659
H    -2.809487  0.264867  6.961403
H    -1.658092  -1.105021  7.006973
Sr    1.640093  -1.435478  4.119303
