36
Energy: -108380.62041 eV PBE+vdW (tier 2 basis)
C    -0.280626  0.354216  0.270602
C    -0.359326  0.121756  1.743535
O    0.688417  -0.113754  2.424813
H    -0.033569  1.407660  0.062797
H    -1.213014  0.108867  -0.247690
H    0.538740  -0.251832  -0.133297
N    -1.550976  0.184590  2.378585
C    -2.534380  1.240910  2.132506
C    -1.879219  2.597458  2.494738
O    -0.775370  2.616089  3.151539
H    -1.523630  -0.134813  3.347968
H    -2.803359  1.246455  1.065586
C    -3.798442  1.010735  2.976605
C    -4.636614  -0.202231  2.558163
C    -6.039967  -0.200416  3.212029
N    -6.889954  0.908081  2.791045
C    -6.695402  2.222362  3.212947
N    -6.360333  2.351492  4.558763
N    -6.760599  3.285317  2.478267
H    -4.410105  1.915514  2.900722
H    -3.514742  0.946140  4.040541
H    -4.127083  -1.144971  2.812105
H    -4.761912  -0.203001  1.462661
H    -5.946244  -0.196964  4.305594
H    -6.551217  -1.135916  2.950939
H    -7.211591  0.846316  1.829344
H    -6.440942  3.320744  4.856166
H    -6.863674  1.727164  5.184493
H    -6.947101  3.052505  1.498329
N    -2.464123  3.728969  2.149896
C    -3.695392  3.940045  1.378293
H    -2.000274  4.569135  2.496266
H    -3.612145  4.908104  0.874898
H    -4.593897  3.944153  2.022292
H    -3.807655  3.162930  0.614968
Sr    1.194788  1.661437  3.832676
