36
Energy: -108381.825241 eV PBE+vdW (tier 2 basis)
C    -0.769229  3.361056  0.247974
C    -0.440732  2.071449  0.640556
O    0.780744  1.723055  0.924212
H    -1.792141  3.705935  0.114390
H    -1.235723  2.631102  -2.169706
H    0.023953  3.990299  -0.158650
N    -1.413238  1.074340  0.904327
C    -2.687920  1.410988  1.524901
C    -2.481930  1.992662  2.958996
O    -1.346245  2.372791  3.354706
H    -0.947248  0.274516  1.336232
H    -3.135927  2.228567  0.936811
C    -3.663234  0.205986  1.506158
C    -3.718689  -0.635837  0.216748
C    -4.082234  0.072466  -1.092016
N    -2.955317  0.882357  -1.566350
C    -2.892815  1.552752  -2.718426
N    -3.851315  1.417302  -3.645959
N    -1.865052  2.390267  -2.932148
H    -4.678445  0.575489  1.718255
H    -3.406526  -0.478012  2.329155
H    -4.476771  -1.413403  0.381605
H    -2.773006  -1.178432  0.071946
H    -4.975350  0.707090  -0.968027
H    -4.323328  -0.703956  -1.835293
H    -2.141544  0.907194  -0.938271
H    -3.852907  1.981712  -4.486487
H    -4.537060  0.675484  -3.588834
H    -1.663391  2.757982  -3.853306
N    -3.545528  2.095524  3.748911
C    -3.504355  2.652804  5.102429
H    -4.438707  1.760142  3.404278
H    -4.488519  2.524386  5.560177
H    -3.260153  3.721818  5.073439
H    -2.755087  2.128615  5.706413
Sr    0.748116  3.221264  2.650097
