36
Energy: -108383.074391 eV PBE+vdW (tier 2 basis)
C    -0.657876  1.546837  0.414295
C    -0.474661  0.713728  1.645284
O    0.674376  0.353107  2.011518
H    -1.699090  1.822350  0.217560
H    -0.267273  0.988857  -0.447763
H    -0.054571  2.459375  0.504536
N    -1.588140  0.366002  2.328225
C    -1.683594  -0.519359  3.507420
C    -1.119984  0.194712  4.754854
O    0.119110  0.347518  4.923206
H    -2.466230  0.711597  1.953640
H    -2.760650  -0.656427  3.669277
C    -1.053961  -1.905485  3.214010
C    -0.554907  -2.721252  4.414889
C    0.484274  -3.769283  3.962002
N    1.416688  -4.167333  4.999868
C    2.633092  -3.598654  5.196015
N    3.486345  -4.287024  5.992410
N    2.950623  -2.429278  4.638324
H    -0.219281  -1.755574  2.515598
H    -1.794125  -2.479674  2.640305
H    -1.387302  -3.211405  4.937912
H    -0.075791  -2.073414  5.162308
H    1.079467  -3.372590  3.125023
H    -0.011407  -4.672481  3.583688
H    1.184709  -4.980007  5.558960
H    3.344448  -5.264910  6.213861
H    4.351173  -3.869885  6.309445
H    3.965907  -2.318905  4.733415
N    -2.011951  0.632808  5.639067
C    -1.685420  1.347619  6.871879
H    -2.996466  0.485050  5.436155
H    -2.296713  0.952973  7.690406
H    -1.889493  2.419818  6.756105
H    -0.626551  1.202935  7.098940
Sr    2.106224  -0.248345  3.796361
