36
Energy: -108381.864004 eV PBE+vdW (tier 2 basis)
C    0.443232  1.178914  0.241100
C    -0.065047  0.179426  1.236688
O    0.720520  -0.253889  2.166341
H    0.785337  2.081500  0.766250
H    -0.316299  1.471413  -0.490692
H    1.298939  0.754968  -0.303036
N    -1.309989  -0.221334  1.128833
C    -2.045567  -1.211033  1.910837
C    -3.239856  -1.533929  0.953720
O    -3.448007  -0.753528  0.017598
H    -1.927593  0.087361  0.342674
H    -1.409190  -2.093881  2.067702
C    -2.534260  -0.644903  3.280583
C    -2.296859  -1.564693  4.502971
C    -1.526950  -0.896562  5.642908
N    -0.180049  -0.543476  5.192621
C    0.869346  -0.195197  5.969310
N    0.682385  -0.110453  7.299922
N    2.058046  0.019123  5.384078
H    -3.599461  -0.394136  3.202279
H    -2.034859  0.323288  3.429451
H    -1.749989  -2.472129  4.206168
H    -3.254098  -1.909702  4.911440
H    -1.451356  -1.601623  6.483714
H    -2.068829  -0.001788  5.995451
H    -0.070403  -0.368770  4.196264
H    1.461614  0.047839  7.925662
H    -0.237600  -0.159995  7.718861
H    2.723657  0.389047  6.066175
N    -4.006519  -2.610280  1.190627
C    -3.882742  -3.622992  2.229618
H    -4.789332  -2.695163  0.545074
H    -2.831213  -3.813589  2.472264
H    -4.305515  -4.560782  1.855059
H    -4.423095  -3.344425  3.144967
Sr    2.775976  -0.416922  3.152865
