36
Energy: -108382.960284 eV PBE+vdW (tier 2 basis)
C    -1.164512  -0.801766  0.079976
C    -1.421749  -0.525841  1.530052
O    -1.705520  -1.462282  2.319981
H    -0.324530  -1.503798  -0.006251
H    -0.942804  0.094252  -0.508817
H    -2.043743  -1.303233  -0.345742
N    -1.344397  0.755221  1.940838
C    -1.594401  1.311723  3.286958
C    -0.454782  0.919835  4.257873
O    -0.435042  -0.225644  4.780907
H    -1.108929  1.434511  1.224167
H    -1.567557  2.398939  3.134009
C    -2.949816  0.955784  3.924530
C    -4.188735  0.966075  3.030295
C    -5.342300  0.175143  3.676228
N    -5.397396  -1.253750  3.319242
C    -5.193977  -2.291473  4.185793
N    -6.084745  -3.309235  4.102223
N    -4.148533  -2.307363  5.011486
H    -3.091837  1.657916  4.760267
H    -2.895837  -0.024595  4.413737
H    -3.979003  0.533932  2.042461
H    -4.518405  1.999263  2.854786
H    -6.299730  0.611922  3.365156
H    -5.301510  0.253383  4.770858
H    -6.037404  -1.465431  2.559726
H    -5.901030  -4.198981  4.549283
H    -7.019479  -3.168190  3.736455
H    -4.355816  -2.946880  5.786229
N    0.470978  1.840030  4.508565
C    1.617419  1.656543  5.397970
H    0.381012  2.741671  4.048661
H    2.543896  1.593883  4.813423
H    1.481962  0.734078  5.967157
H    1.683636  2.507241  6.085201
Sr    -1.706849  -2.233376  4.515365
