36
Energy: -108382.061228 eV PBE+vdW (tier 2 basis)
C    -0.340353  1.317578  0.238669
C    -0.598814  1.274250  1.722825
O    -0.761681  2.446249  2.299911
H    -1.244277  1.678597  -0.272016
H    -0.062460  0.342045  -0.170062
H    0.455281  2.037170  0.002917
N    -0.643559  0.114527  2.315688
C    -1.066812  -0.053267  3.699390
C    -0.493604  0.875760  4.774482
O    0.616633  1.491820  4.652982
H    -0.660803  -1.332847  1.343622
H    -2.160752  0.095272  3.733452
C    -0.813339  -1.524200  4.144552
C    0.649814  -1.993530  4.175097
C    1.295922  -2.342073  2.825376
N    0.656493  -3.466932  2.136940
C    -0.197921  -3.380799  1.103917
N    -0.533886  -4.509881  0.449883
N    -0.706032  -2.205644  0.735050
H    -1.413529  -2.167930  3.485876
H    -1.240208  -1.668266  5.145318
H    0.706829  -2.882088  4.821391
H    1.290925  -1.240126  4.658559
H    2.344916  -2.622343  2.990332
H    1.295216  -1.482833  2.146366
H    0.884623  -4.399476  2.465027
H    -1.273749  -4.514673  -0.240111
H    0.005328  -5.360614  0.550082
H    -1.253841  -2.160894  -0.115738
N    -1.162845  1.013868  5.924702
C    -2.443457  0.443866  6.344834
H    -0.653024  1.537479  6.634945
H    -3.121598  0.334609  5.493246
H    -2.904511  1.127638  7.064732
H    -2.308386  -0.532246  6.828443
Sr    0.750279  3.484041  3.507817
