36
Energy: -108380.211135 eV PBE+vdW (tier 2 basis)
C    0.441813  -0.865848  0.380345
C    -0.173801  -0.135285  1.528213
O    0.496799  0.012380  2.603065
H    1.528945  -0.746497  0.451195
H    0.090557  -0.505475  -0.589651
H    0.225702  -1.943705  0.446903
N    -1.414846  0.407796  1.477335
C    -2.650932  -0.257399  1.033634
C    -3.013771  -1.304046  2.115218
O    -2.126506  -1.707904  2.947684
H    -1.572280  1.046732  2.257715
H    -3.421886  0.527828  1.053113
C    -2.642734  -0.846460  -0.393416
C    -2.439853  0.223592  -1.467385
C    -2.438417  -0.353685  -2.899013
N    -2.294182  0.675154  -3.916491
C    -3.264317  1.689384  -4.025598
N    -4.563316  1.193558  -4.145861
N    -2.873082  2.910166  -3.966226
H    -3.616780  -1.330152  -0.551132
H    -1.904634  -1.656579  -0.472258
H    -1.504131  0.780065  -1.301632
H    -3.245421  0.971465  -1.396291
H    -3.370075  -0.910832  -3.071029
H    -1.615465  -1.072980  -3.026459
H    -1.375790  1.116436  -3.925258
H    -5.259934  1.904188  -4.347759
H    -4.657568  0.389092  -4.762523
H    -3.612400  3.572382  -4.219146
N    -4.245080  -1.784151  2.191947
C    -5.432666  -1.440598  1.404018
H    -4.374837  -2.502135  2.905054
H    -6.300565  -1.444781  2.071894
H    -5.595787  -2.178714  0.608571
H    -5.340316  -0.443685  0.964293
Sr    -0.262423  -1.389217  4.265155
