36
Energy: -108381.451106 eV PBE+vdW (tier 2 basis)
C    -1.317785  0.609781  -0.161648
C    -1.055168  0.322365  1.281862
O    0.141492  0.247094  1.706767
H    -2.381658  0.699793  -0.403171
H    -0.882655  -0.201574  -0.762532
H    -0.800977  1.533468  -0.452337
N    -2.105266  0.149311  2.090496
C    -2.168760  -0.308844  3.495123
C    -1.605636  0.688841  4.512382
O    -0.366195  0.993895  4.549704
H    -3.019916  0.224033  1.648669
H    -3.246210  -0.340102  3.670244
C    -1.635256  -1.743900  3.679963
C    -1.785956  -2.363367  5.082853
C    -3.188069  -2.333427  5.755245
N    -4.328387  -2.479779  4.857019
C    -5.013942  -1.419434  4.291712
N    -5.110511  -0.265861  5.128223
N    -5.525862  -1.334014  3.115839
H    -0.575168  -1.798058  3.388081
H    -2.173516  -2.358410  2.944289
H    -1.077050  -1.901753  5.788765
H    -1.461562  -3.409251  4.986791
H    -3.316964  -1.397272  6.308112
H    -3.219754  -3.131246  6.509437
H    -4.367796  -3.337749  4.315052
H    -5.809456  0.348927  4.705951
H    -5.413437  -0.505690  6.074769
H    -5.352396  -2.169728  2.549562
N    -2.483119  1.154968  5.377983
C    -2.181043  2.058296  6.482449
H    -3.459392  0.788481  5.292894
H    -2.649596  1.678238  7.397553
H    -2.584941  3.057013  6.271690
H    -1.099795  2.126320  6.625234
Sr    1.558532  0.794887  3.371772
