36
Energy: -108382.19941 eV PBE+vdW (tier 2 basis)
C    -0.700324  0.841032  -0.958415
C    -0.145548  0.591537  0.420055
O    1.095970  0.862976  0.622861
H    -1.564331  1.516165  -0.936094
H    -1.031818  -0.098472  -1.424565
H    0.077656  1.284997  -1.585169
N    -0.796060  0.029447  1.455819
C    -1.998643  -0.801110  1.295362
C    -1.545864  -2.153615  0.681782
O    -0.347777  -2.525086  0.855180
H    -0.128485  3.099319  3.480243
H    -2.266850  -1.088775  2.329382
C    -3.282041  -0.188030  0.686803
C    -3.643978  1.240205  1.136093
C    -3.668598  1.527522  2.643610
N    -2.319593  1.810970  3.151530
C    -2.028808  2.673047  4.124580
N    -2.972185  3.125506  4.962156
N    -0.753066  3.086476  4.277384
H    -4.121823  -0.846197  0.963658
H    -3.236394  -0.184370  -0.410905
H    -4.648829  1.453107  0.747094
H    -2.982903  1.978459  0.660129
H    -4.122102  0.690285  3.199878
H    -4.290858  2.415978  2.817781
H    -1.540406  1.329590  2.663820
H    -3.873205  2.670863  5.039011
H    -2.804274  3.922297  5.564735
H    -0.482578  3.642954  5.079347
N    -2.428434  -2.905695  0.035304
C    -2.159400  -4.235534  -0.512280
H    -3.367817  -2.537254  -0.079674
H    -2.811316  -4.974801  -0.031643
H    -1.114791  -4.491766  -0.323521
H    -2.349409  -4.238136  -1.592030
Sr    1.382599  -1.166105  1.755247
