36
Energy: -108382.929852 eV PBE+vdW (tier 2 basis)
C    0.759990  2.501777  1.187204
C    -0.136752  1.737125  2.111558
O    -0.595038  0.613971  1.777431
H    1.632853  1.882416  0.942301
H    1.102415  3.458823  1.594080
H    0.223098  2.684128  0.246523
N    -0.429885  2.306152  3.301776
C    -1.347052  1.793493  4.340827
C    -0.720968  0.560687  5.024806
O    -0.788458  -0.581379  4.494007
H    -0.015530  3.216573  3.474981
H    -1.397778  2.593189  5.088194
C    -2.775556  1.572127  3.789331
C    -3.685584  0.669515  4.624213
C    -5.082962  0.494687  4.015583
N    -5.142346  0.219961  2.563630
C    -5.001650  -1.022990  2.004501
N    -5.924292  -1.361380  1.073594
N    -3.977942  -1.805365  2.333647
H    -2.722182  1.188407  2.761741
H    -3.228375  2.569155  3.685535
H    -3.825926  1.082399  5.635153
H    -3.234921  -0.321032  4.770735
H    -5.657152  1.419622  4.152200
H    -5.613432  -0.295825  4.565321
H    -5.793373  0.820614  2.068389
H    -5.786383  -2.162870  0.469935
H    -6.835354  -0.918625  1.040988
H    -4.201352  -2.766394  2.053136
N    -0.100168  0.719659  6.191500
C    0.112546  1.946445  6.965893
H    0.292946  -0.140698  6.571947
H    -0.838436  2.395397  7.277872
H    0.709347  2.677029  6.406169
H    0.669190  1.680262  7.868628
Sr    -1.514506  -1.455069  2.434200
