36
Energy: -108381.431834 eV PBE+vdW (tier 2 basis)
C    2.769829  -1.405417  0.610420
C    1.808662  -0.523830  1.340380
O    1.882905  0.740104  1.227054
H    2.629010  -1.251078  -0.469186
H    2.642316  -2.469354  0.835113
H    3.799538  -1.105793  0.842903
N    0.867169  -1.098602  2.097864
C    -0.291569  -0.441600  2.728813
C    0.097414  0.243658  4.059813
O    0.851352  1.278514  3.995444
H    0.878818  -2.114596  2.146881
H    -0.567517  0.399883  2.072792
C    -1.483632  -1.407861  2.777615
C    -1.225992  -2.816158  3.372858
C    -2.291383  -3.245813  4.391666
N    -2.258277  -2.394162  5.591058
C    -3.359318  -1.543676  5.915681
N    -3.296184  -1.093668  7.230527
N    -4.238793  -1.069646  5.118264
H    -1.863573  -1.507560  1.752428
H    -2.280184  -0.891171  3.332258
H    -0.248251  -2.868936  3.882109
H    -1.193424  -3.565065  2.568991
H    -2.118131  -4.288621  4.686173
H    -3.293693  -3.214936  3.941010
H    -1.897935  -2.890900  6.404387
H    -4.123652  -0.553866  7.475221
H    -3.080610  -1.789540  7.940838
H    -4.176478  -1.426834  4.163779
N    -0.382004  -0.192165  5.198890
C    -0.143801  0.455802  6.488635
H    -1.014459  -1.029271  5.230898
H    -0.994133  0.221367  7.137835
H    -0.061942  1.538845  6.357526
H    0.782002  0.079057  6.943735
Sr    1.943814  2.605874  2.523132
