36
Energy: -108381.657528 eV PBE+vdW (tier 2 basis)
C    -0.887775  0.921330  0.303717
C    -0.756304  0.594945  1.759006
O    -0.176190  -0.478511  2.114787
H    -1.344361  1.897589  0.111190
H    -1.501570  0.142189  -0.170863
H    0.098304  0.883079  -0.176119
N    -1.268343  1.460743  2.642160
C    -1.487313  1.343484  4.098312
C    -0.208497  1.385221  4.949930
O    0.822620  0.684767  4.650341
H    -1.681258  2.293023  2.230401
H    -2.032399  2.267393  4.329952
C    -2.373228  0.140180  4.502322
C    -3.825115  0.157780  3.991312
C    -4.681694  1.406091  4.324527
N    -4.518332  1.912830  5.690529
C    -3.559759  2.851682  6.012311
N    -3.391008  3.871272  5.081050
N    -2.757547  2.830768  7.038212
H    -2.372910  0.111321  5.601366
H    -1.901815  -0.797991  4.173493
H    -4.313179  -0.732592  4.414435
H    -3.854887  0.014545  2.900131
H    -5.737882  1.158576  4.156052
H    -4.449096  2.223319  3.632435
H    -4.689009  1.231998  6.425669
H    -2.860598  4.646948  5.471205
H    -4.243678  4.191130  4.628016
H    -2.919246  2.011492  7.630348
N    -0.248720  2.125068  6.035381
C    0.850320  2.199358  6.996083
H    -1.170217  2.563656  6.345199
H    0.555515  2.891025  7.789938
H    1.059861  1.215302  7.435791
H    1.759969  2.572428  6.511075
Sr    1.544510  -1.081447  3.465938
