36
Energy: -108381.831253 eV PBE+vdW (tier 2 basis)
C    0.041336  0.429640  0.606475
C    -0.077114  0.068338  2.059252
O    0.765632  -0.837693  2.500258
H    1.051288  0.809790  0.400814
H    -0.688415  1.188595  0.312143
H    -0.089725  -0.468845  -0.012016
N    -0.995561  0.661749  2.773732
C    -1.225818  0.311179  4.188715
C    0.005979  0.622746  5.060730
O    0.880861  -0.244622  5.366269
H    -2.662048  0.935672  2.122575
H    -1.991560  1.026347  4.529475
C    -1.790374  -1.117408  4.428683
C    -3.096669  -1.206804  5.248152
C    -4.440087  -1.047918  4.506326
N    -4.869127  0.331099  4.216771
C    -4.346348  1.123748  3.270324
N    -4.467458  2.459764  3.363051
N    -3.667309  0.625929  2.221643
H    -1.033930  -1.710287  4.965395
H    -1.924491  -1.609327  3.455190
H    -3.065660  -0.509594  6.100221
H    -3.138652  -2.210080  5.696616
H    -5.236558  -1.470694  5.129563
H    -4.449472  -1.645257  3.582303
H    -5.574273  0.727294  4.830763
H    -4.385697  3.015667  2.518530
H    -4.893536  2.899761  4.170248
H    -3.761927  -0.375142  2.081105
N    0.128411  1.880747  5.472155
C    1.252257  2.401509  6.246605
H    -0.580741  2.539733  5.165206
H    0.910465  3.258249  6.834817
H    2.067281  2.727251  5.586133
H    1.620496  1.624285  6.922417
Sr    1.992731  -1.764958  4.036046
