36
Energy: -108383.096351 eV PBE+vdW (tier 2 basis)
C    -2.276757  2.298655  0.123000
C    -1.790123  1.124812  0.911274
O    -0.891337  0.365149  0.466156
H    -1.424775  2.959170  -0.087611
H    -3.058634  2.873258  0.630213
H    -2.656578  1.949463  -0.846156
N    -2.338290  0.903614  2.126815
C    -1.888153  -0.163637  3.025893
C    -2.515932  -1.507264  2.590988
O    -1.884630  -2.231657  1.775581
H    -3.067194  1.536454  2.445475
H    -0.817151  -0.282734  2.818337
C    -2.036263  0.232962  4.497755
C    -1.412468  -0.742491  5.512898
C    0.102069  -1.018601  5.375136
N    0.425559  -2.202699  4.567028
C    0.952394  -2.226750  3.326522
N    0.933151  -3.465505  2.638941
N    1.380508  -1.228557  2.593444
H    -3.095645  0.386108  4.763959
H    -1.563924  1.220858  4.612095
H    -1.949272  -1.703352  5.515355
H    -1.579221  -0.312036  6.509433
H    0.530466  -1.187697  6.370759
H    0.633092  -0.147867  4.968096
H    0.317464  -3.096141  5.038378
H    0.401840  -4.211379  3.085991
H    1.875132  -3.787976  2.411569
H    1.555427  -0.366543  3.111086
N    -3.714200  -1.832580  3.066704
C    -4.474554  -3.023779  2.690006
H    -4.148960  -1.193534  3.726530
H    -4.750545  -3.587846  3.588414
H    -3.856421  -3.646554  2.039534
H    -5.388095  -2.733518  2.156583
Sr    0.119019  -1.775805  0.507817
