36
Energy: -108381.244426 eV PBE+vdW (tier 2 basis)
C    -0.671412  -1.029039  0.386054
C    -0.436154  -0.597148  1.796172
O    0.616270  -0.950559  2.417027
H    -0.037705  -0.446417  -0.300252
H    -1.713741  -0.922926  0.072068
H    -0.358236  -2.076579  0.293246
N    -1.333406  0.195764  2.421178
C    -1.946140  1.356050  1.772741
C    -0.812071  2.357951  1.404666
O    0.377106  2.164405  1.864338
H    -1.149635  0.320108  3.418255
H    -2.409195  1.040647  0.823143
C    -3.015894  1.972652  2.696485
C    -4.341804  1.201087  2.812431
C    -5.168232  1.049372  1.512332
N    -5.245702  2.277149  0.710474
C    -4.246290  2.615979  -0.174477
N    -3.756369  1.569474  -0.950867
N    -3.671790  3.780146  -0.302218
H    -3.211267  2.994922  2.351176
H    -2.581803  2.088782  3.703769
H    -4.948599  1.734624  3.558960
H    -4.177393  0.195886  3.230372
H    -6.185762  0.732065  1.772938
H    -4.755678  0.252825  0.882632
H    -5.637526  3.075852  1.203641
H    -3.245491  1.920241  -1.757690
H    -4.452646  0.879694  -1.223840
H    -4.067418  4.474476  0.337481
N    -1.097393  3.357851  0.609380
C    -0.124003  4.370289  0.203410
H    -2.094348  3.490893  0.219988
H    -0.635944  5.082363  -0.449898
H    0.707378  3.914406  -0.349143
H    0.275349  4.902751  1.075436
Sr    2.029991  0.868993  2.729286
