36
Energy: -108382.404072 eV PBE+vdW (tier 2 basis)
C    -1.138934  -0.473047  0.306566
C    -0.964357  0.024005  1.717136
O    0.151471  0.665698  1.959578
H    -1.186198  0.378563  -0.388104
H    -2.025387  -1.108760  0.203907
H    -0.264853  -1.065066  0.005988
N    -1.916307  -0.203889  2.583175
C    -1.783694  0.314766  3.950355
C    -0.774501  -0.514078  4.769096
O    0.452618  -0.176750  4.799246
H    -3.743994  0.224773  -0.183026
H    -1.330390  1.323537  3.933779
C    -3.171738  0.464182  4.614585
C    -4.162026  -0.718538  4.470278
C    -5.266426  -0.502716  3.432315
N    -4.682733  -0.344164  2.101337
C    -5.386939  -0.079969  1.006182
N    -6.729770  -0.079000  1.026306
N    -4.754262  0.214615  -0.146950
H    -3.629904  1.367725  4.186806
H    -3.020627  0.696221  5.677972
H    -4.663978  -0.898941  5.429584
H    -3.648331  -1.655059  4.199478
H    -5.854588  0.392051  3.697730
H    -5.942766  -1.372743  3.451470
H    -3.627013  -0.355546  2.078599
H    -7.243813  -0.362027  1.849437
H    -7.270835  0.188657  0.214062
H    -5.248724  0.220633  -1.029736
N    -1.179119  -1.581957  5.441998
C    -0.296082  -2.439117  6.232736
H    -2.161955  -1.828246  5.393554
H    -0.912039  -3.093513  6.855143
H    0.344712  -1.826585  6.875861
H    0.335233  -3.055803  5.580266
Sr    1.817140  0.971029  3.351299
