36
Energy: -108380.640904 eV PBE+vdW (tier 2 basis)
C    -0.659449  -0.824748  0.301418
C    -0.366863  -0.096411  1.571704
O    0.753195  -0.229547  2.158749
H    -0.294385  -0.246314  -0.562516
H    -1.728238  -1.015981  0.160027
H    -0.110581  -1.773265  0.308657
N    -1.285883  0.738848  2.104955
C    -2.062715  1.691660  1.311414
C    -1.058035  2.691503  0.671173
O    0.163895  2.701304  1.071154
H    -1.048512  1.077212  3.038351
H    -2.573339  1.148620  0.502954
C    -3.120163  2.386569  2.192201
C    -2.552027  3.253300  3.322131
C    -3.602662  4.210285  3.941217
N    -4.351035  4.999326  2.972656
C    -3.788223  5.726416  1.934484
N    -2.493339  6.197164  2.183161
N    -4.317368  5.957174  0.779569
H    -3.786337  1.603945  2.583786
H    -3.735940  3.016325  1.538152
H    -1.725389  3.870526  2.937160
H    -2.155448  2.639301  4.148198
H    -3.091681  4.855686  4.672628
H    -4.341946  3.637602  4.515522
H    -5.308462  4.712571  2.807981
H    -2.256625  6.911828  1.497664
H    -2.355353  6.551833  3.127895
H    -5.241789  5.527645  0.682192
N    -1.441901  3.520406  -0.277058
C    -2.746709  3.684578  -0.922957
H    -0.718328  4.175277  -0.576375
H    -2.576622  3.858729  -1.990978
H    -3.274872  4.555727  -0.486923
H    -3.353247  2.781603  -0.809231
Sr    1.992847  1.730312  2.041437
