36
Energy: -108382.446067 eV PBE+vdW (tier 2 basis)
C    0.912180  1.023589  0.501340
C    0.411188  0.930079  1.909282
O    1.212714  0.643969  2.852186
H    0.126123  1.247760  -0.227099
H    1.405200  0.083603  0.222597
H    1.676347  1.811751  0.454937
N    -0.884209  1.167982  2.138010
C    -1.557982  1.254680  3.452616
C    -1.862482  -0.160020  3.987166
O    -0.847753  -0.746580  4.584656
H    -1.462049  1.362066  1.324212
H    -0.822712  1.696913  4.143493
C    -2.736583  2.227817  3.316888
C    -3.421391  2.618481  4.642655
C    -4.684856  1.839786  5.033599
N    -5.800942  2.029761  4.102578
C    -6.257114  1.133598  3.211105
N    -7.440717  1.372272  2.611511
N    -5.553377  0.045050  2.906294
H    -3.469290  1.828461  2.599471
H    -2.332925  3.141221  2.856824
H    -3.680037  3.685890  4.597215
H    -2.710639  2.531007  5.478988
H    -5.024685  2.181040  6.020854
H    -4.487454  0.766269  5.116150
H    -6.305552  2.908171  4.162107
H    -7.759435  0.800531  1.840055
H    -8.102278  2.036175  2.993786
H    -6.003244  -0.686248  2.368738
N    -3.027913  -0.680401  3.804194
C    -3.239666  -2.040774  4.298272
H    -4.549482  -0.121766  3.220318
H    -4.314142  -2.259135  4.313595
H    -2.838075  -2.184865  5.311140
H    -2.756311  -2.778611  3.639897
Sr    1.349061  -0.750751  4.666396
