36
Energy: -108382.402282 eV PBE+vdW (tier 2 basis)
C    0.258702  0.070737  1.233794
C    -0.779269  -0.290474  2.247650
O    -0.466908  -0.822827  3.342625
H    0.659050  1.074204  1.446927
H    -0.120929  0.055594  0.206629
H    1.093767  -0.631831  1.329703
N    -2.098424  -0.041984  1.991947
C    -2.567007  1.203619  1.396839
C    -2.347934  2.333401  2.439735
O    -2.056293  2.040771  3.634789
H    -2.701176  -0.402755  2.733953
H    -1.917159  1.420150  0.536435
C    -4.014113  1.086361  0.846290
C    -5.228504  1.328710  1.760906
C    -5.580234  0.265510  2.832905
N    -5.306954  0.713732  4.202605
C    -4.333988  0.264070  5.011401
N    -3.974324  1.075713  6.112053
N    -3.562123  -0.788968  4.860462
H    -4.083987  0.092798  0.379709
H    -4.102888  1.796087  0.014059
H    -6.092257  1.410344  1.087940
H    -5.153129  2.313039  2.249004
H    -5.051134  -0.679247  2.656621
H    -6.647484  0.018593  2.776921
H    -5.928175  1.430044  4.568433
H    -4.102859  0.593201  7.003183
H    -4.402756  1.999991  6.142103
H    -3.935925  -1.504654  4.235467
N    -2.448414  3.605446  2.061408
C    -2.727907  4.152168  0.731806
H    -2.290507  4.279462  2.809400
H    -2.273680  5.145509  0.667173
H    -3.807130  4.249840  0.557709
H    -2.285293  3.528573  -0.052129
Sr    -1.381226  0.334461  5.243683
