36
Energy: -108382.563646 eV PBE+vdW (tier 2 basis)
C    -1.214609  0.019741  -0.441908
C    -1.192119  1.040749  0.659856
O    -0.152813  1.838675  0.680524
H    -1.096545  0.525726  -1.409312
H    -2.139530  -0.563559  -0.453827
H    -0.362810  -0.665933  -0.336793
N    -2.187453  1.087495  1.509662
C    -2.206422  2.154311  2.518654
C    -1.264825  1.797524  3.680492
O    -0.049161  2.172560  3.660762
H    -3.589868  0.080868  1.342312
H    -1.780288  3.084190  2.096099
C    -3.646229  2.463136  2.965552
C    -4.517561  3.140031  1.893954
C    -5.038452  2.263874  0.745591
N    -5.968157  1.213779  1.174636
C    -5.699390  -0.098800  1.266375
N    -6.730426  -0.956502  1.404702
N    -4.444639  -0.547528  1.240315
H    -3.601145  3.138413  3.832380
H    -4.146226  1.544230  3.316997
H    -3.962101  3.975931  1.440511
H    -5.380963  3.601161  2.395946
H    -4.221459  1.788666  0.192780
H    -5.579759  2.898728  0.031287
H    -6.922808  1.496895  1.370511
H    -6.572563  -1.932833  1.618005
H    -7.676035  -0.687785  1.162526
H    -4.290546  -1.543673  1.139921
N    -1.731305  1.070534  4.686371
C    -0.940431  0.621511  5.830707
H    -2.708196  0.796708  4.648199
H    -0.454442  -0.339531  5.616470
H    -1.602232  0.502963  6.693705
H    -0.175019  1.368061  6.061039
Sr    1.392030  2.734710  1.950360
