36
Energy: -108381.490657 eV PBE+vdW (tier 2 basis)
C    0.199754  0.152248  0.232208
C    -0.025512  0.130575  1.707432
O    0.825296  0.661309  2.507709
H    -0.756407  0.140127  -0.312589
H    0.796087  -0.724290  -0.063513
H    0.775542  1.046095  -0.030889
N    -1.128699  -0.455869  2.161960
C    -1.636503  -0.376613  3.536926
C    -0.935700  -1.397630  4.452661
O    0.256782  -1.172027  4.836752
H    -1.835141  -0.832835  1.461563
H    -1.310524  0.596661  3.941310
C    -3.182574  -0.323431  3.526043
C    -4.090147  -1.514449  3.124987
C    -3.784538  -2.337242  1.856761
N    -3.219683  -1.563907  0.744361
C    -3.878888  -0.459417  0.110813
N    -5.222031  -0.332146  0.380457
N    -3.105329  0.321768  -0.549599
H    -3.423775  0.521731  2.865117
H    -3.500105  -0.001726  4.528402
H    -5.089272  -1.069757  3.030245
H    -4.213380  -2.233101  3.954097
H    -4.696760  -2.894939  1.583106
H    -3.028930  -3.106397  2.077486
H    -2.782580  -2.151295  0.036156
H    -5.782623  -1.175815  0.458280
H    -5.705403  0.429157  -0.085893
H    -3.613276  1.036606  -1.076729
N    -1.574535  -2.485893  4.842004
C    -1.005037  -3.507514  5.723514
H    -2.535943  -2.598216  4.531380
H    -1.778944  -4.248001  5.940657
H    -0.665786  -3.053637  6.661864
H    -0.156640  -4.003824  5.237306
Sr    1.972595  0.293345  4.386619
