36
Energy: -108380.748468 eV PBE+vdW (tier 2 basis)
C    -0.178670  1.207740  0.004803
C    -0.343592  0.492326  1.305131
O    0.662272  0.017624  1.921483
H    0.111638  2.255876  0.180673
H    -1.087598  1.196462  -0.604723
H    0.643847  0.738338  -0.547767
N    -1.569686  0.366808  1.859259
C    -2.530845  1.472176  1.938065
C    -1.851130  2.638833  2.689210
O    -0.813516  2.406689  3.412224
H    -1.600194  -0.261640  2.663444
H    -2.801228  1.800146  0.924212
C    -3.787919  1.012164  2.703500
C    -4.610694  -0.092741  2.024316
C    -5.277323  0.300838  0.688936
N    -5.913992  1.618405  0.677657
C    -6.733117  2.066955  1.716422
N    -7.744065  1.196290  2.050872
N    -6.438857  3.197442  2.278243
H    -4.430090  1.888360  2.871959
H    -3.469529  0.674751  3.704571
H    -5.396248  -0.370861  2.741091
H    -4.013464  -1.004498  1.864265
H    -6.001887  -0.483092  0.426691
H    -4.549325  0.302898  -0.134958
H    -5.326021  2.377289  0.352883
H    -8.404494  1.505489  2.755016
H    -8.161170  0.653570  1.300788
H    -7.185504  3.537200  2.889825
N    -2.341885  3.859070  2.603014
C    -3.459964  4.346432  1.781658
H    -1.871776  4.547140  3.190876
H    -3.461592  5.437893  1.845233
H    -4.445839  3.968033  2.124390
H    -3.302342  4.070504  0.730674
Sr    1.077665  1.203569  3.877098
