36
Energy: -108382.031281 eV PBE+vdW (tier 2 basis)
C    -0.398176  -0.329146  0.153795
C    -0.076155  -0.227338  1.610098
O    1.084490  -0.515616  2.037892
H    -0.236579  0.648092  -0.326773
H    -1.437033  -0.626659  -0.028814
H    0.274496  -1.053880  -0.314177
N    -1.010535  0.176263  2.482663
C    -2.231301  0.918672  2.171880
C    -1.869332  2.242314  1.454820
O    -0.772147  2.799091  1.652906
H    -0.704466  0.189633  3.454032
H    -2.852276  0.309818  1.500973
C    -3.069969  1.207016  3.452451
C    -2.349901  1.364388  4.806883
C    -1.190435  2.388393  4.942966
N    0.084186  1.702384  5.222683
C    1.276471  1.776444  4.599561
N    1.390128  2.394160  3.330107
N    2.389248  1.196656  5.001793
H    -3.797973  0.394488  3.574858
H    -3.661248  2.111644  3.256507
H    -1.992116  0.380414  5.151179
H    -3.134528  1.628544  5.527848
H    -1.390315  3.073471  5.777088
H    -1.068613  3.005687  4.047841
H    0.093634  1.164679  6.087620
H    0.507683  2.551620  2.792115
H    1.919494  3.266247  3.395812
H    2.368934  0.847423  5.961876
N    -2.789107  2.769488  0.633624
C    -4.098092  2.231165  0.257933
H    -2.521285  3.668872  0.238683
H    -4.010354  1.237453  -0.200419
H    -4.537436  2.901393  -0.485954
H    -4.785068  2.180299  1.112184
Sr    3.069230  0.398722  2.799175
