36
Energy: -108382.35499 eV PBE+vdW (tier 2 basis)
C    -0.345548  -0.117084  -0.185219
C    -0.584374  -0.633528  1.207472
O    0.006323  -1.769757  1.500830
H    -1.029098  0.698097  -0.441438
H    -0.487204  -0.927755  -0.910539
H    0.697152  0.216938  -0.289769
N    -1.335766  0.053707  2.030103
C    -1.527295  -0.525873  3.367763
C    -2.314965  -1.846063  3.297430
O    -1.760660  -2.958160  3.575496
H    -0.940319  1.979187  1.629642
H    -0.548896  -0.806550  3.802847
C    -2.196965  0.459605  4.347737
C    -1.524677  1.842585  4.379563
C    -2.313791  2.866318  3.541967
N    -1.529820  4.024306  3.118106
C    -0.757542  4.027797  2.023269
N    -0.151214  5.165739  1.642478
N    -0.595876  2.906812  1.313880
H    -2.181703  0.001789  5.345933
H    -3.262930  0.583002  4.098159
H    -0.494748  1.768471  4.000857
H    -1.444453  2.203617  5.412868
H    -3.172985  3.246875  4.108204
H    -2.720977  2.390532  2.639363
H    -1.499883  4.838029  3.722561
H    0.531900  5.174947  0.896329
H    -0.407718  6.059939  2.041524
H    -0.154789  2.953345  0.404417
N    -3.586509  -1.790646  2.924124
C    -4.477564  -2.940005  2.792357
H    -3.951665  -0.877184  2.669020
H    -4.496331  -3.305056  1.756503
H    -5.490586  -2.640916  3.079512
H    -4.136520  -3.739702  3.455123
Sr    0.198164  -3.658928  2.594935
