36
Energy: -108382.977822 eV PBE+vdW (tier 2 basis)
C    -0.252023  0.994372  -1.352385
C    -1.138991  1.448039  -0.237516
O    -2.058848  2.285579  -0.429995
H    0.295180  1.860478  -1.748834
H    -0.874610  0.609853  -2.170769
H    0.466890  0.224636  -1.053000
N    -0.932675  0.926864  0.994433
C    -1.774425  1.287751  2.132980
C    -1.277551  2.621416  2.745597
O    -1.746728  3.697975  2.289976
H    -0.174589  0.261715  1.120233
H    -2.738351  1.545632  1.686922
C    -2.056248  0.143585  3.111527
C    -3.222938  0.507045  4.053072
C    -4.645933  0.153386  3.570486
N    -5.012121  0.521770  2.189195
C    -5.124402  1.776254  1.699129
N    -5.341120  1.910561  0.302158
N    -4.911370  2.912741  2.307070
H    -1.163812  -0.116329  3.701460
H    -2.296118  -0.757570  2.527782
H    -3.159075  1.571816  4.325200
H    -3.104074  -0.031725  5.002674
H    -5.377647  0.578501  4.274615
H    -4.775558  -0.934539  3.613804
H    -5.429711  -0.221607  1.638303
H    -6.222926  2.385415  0.101606
H    -5.278768  1.049611  -0.239826
H    -4.868026  2.844352  3.324346
N    -0.349336  2.582780  3.695606
C    0.264263  3.756432  4.317760
H    -0.035338  1.670646  4.014889
H    0.138574  3.706864  5.405518
H    -0.221810  4.655351  3.932168
H    1.334892  3.788756  4.081526
Sr    -3.411793  3.979357  0.582516
