36
Energy: -108381.41339 eV PBE+vdW (tier 2 basis)
C    0.678860  1.539270  -0.152026
C    0.535296  1.090744  1.268635
O    1.326967  1.528864  2.160574
H    0.342738  2.580257  -0.267058
H    0.136663  0.909477  -0.862975
H    1.748617  1.525062  -0.397982
N    -0.431611  0.207365  1.606405
C    -1.828629  0.402797  1.173577
C    -2.504123  1.359677  2.211366
O    -1.683389  2.245718  2.752752
H    -0.340174  -0.112258  2.571476
H    -1.783566  0.988613  0.243394
C    -2.550025  -0.905982  0.838065
C    -2.637570  -1.933161  1.973470
C    -3.577527  -3.127941  1.707094
N    -4.897943  -2.802218  1.127401
C    -5.607288  -1.692166  1.367673
N    -6.476351  -1.232623  0.455014
N    -5.460556  -0.984630  2.508105
H    -2.043616  -1.354156  -0.029546
H    -3.548287  -0.615687  0.488123
H    -2.911580  -1.430134  2.910488
H    -1.649609  -2.383672  2.152809
H    -3.707420  -3.707610  2.632926
H    -3.111422  -3.805969  0.981011
H    -5.234895  -3.428034  0.401686
H    -7.207785  -0.595095  0.748704
H    -6.513999  -1.597596  -0.489347
H    -5.024966  -1.494306  3.270019
N    -3.769557  1.286166  2.434165
C    -4.346725  2.297205  3.322564
H    -5.045192  -0.022131  2.401100
H    -5.423305  2.121754  3.423543
H    -4.202025  3.312643  2.925295
H    -3.899451  2.264966  4.328358
Sr    0.204821  3.050489  3.548263
