36
Energy: -108381.526401 eV PBE+vdW (tier 2 basis)
C    -0.483000  1.941631  1.059366
C    -0.676169  1.152308  2.327919
O    0.379680  1.074697  3.113895
H    0.376188  1.564558  0.486284
H    -0.245533  2.981849  1.322058
H    -1.367379  1.932384  0.416081
N    -1.839578  0.612059  2.560546
C    -2.160362  0.023058  3.856473
C    -1.232235  -1.072893  4.401568
O    -0.383357  -1.688980  3.678814
H    -3.080581  0.673303  1.192725
H    -2.134066  0.827399  4.614167
C    -3.625640  -0.502024  3.815245
C    -3.843112  -1.685774  2.856387
C    -5.245810  -1.788158  2.224902
N    -5.808668  -0.532205  1.679580
C    -5.107131  0.482062  1.159772
N    -5.592301  1.731160  1.196290
N    -3.882193  0.301140  0.610436
H    -4.228749  0.366734  3.522701
H    -3.968787  -0.766115  4.823069
H    -3.691850  -2.637206  3.386779
H    -3.072169  -1.668782  2.075864
H    -5.970655  -2.114285  2.981805
H    -5.242287  -2.563246  1.444358
H    -6.802934  -0.387380  1.831378
H    -5.212289  2.423209  0.560459
H    -6.409584  1.982002  1.740377
H    -3.698690  -0.658698  0.333291
N    -1.324568  -1.416885  5.690970
C    -2.153274  -0.860039  6.760303
H    -0.747139  -2.217714  5.943560
H    -1.601803  -0.943543  7.702587
H    -3.098560  -1.408626  6.861991
H    -2.364094  0.198320  6.580455
Sr    1.639137  -0.726969  3.118041
