36
Energy: -108382.243228 eV PBE+vdW (tier 2 basis)
C    0.647267  -2.662872  2.415057
C    0.256661  -1.230976  2.667732
O    0.660730  -0.374750  1.759687
H    0.548716  -2.879678  1.345009
H    0.026629  -3.369821  2.972393
H    1.702716  -2.821429  2.680006
N    -0.439805  -0.928033  3.735453
C    -0.914429  0.459816  3.861029
C    0.187545  1.331863  4.480081
O    1.083067  1.845762  3.736026
H    -0.623193  -2.348043  4.957013
H    -1.028286  0.885126  2.848486
C    -2.322663  0.557530  4.535195
C    -2.879378  -0.725894  5.156818
C    -2.228819  -1.099906  6.496933
N    -2.408084  -2.500379  6.871346
C    -1.590185  -3.478245  6.451424
N    -1.726633  -4.715389  6.959787
N    -0.635126  -3.211425  5.557515
H    -3.025617  0.871852  3.753842
H    -2.345609  1.380690  5.266913
H    -2.755201  -1.551089  4.443425
H    -3.960992  -0.603523  5.305604
H    -2.638037  -0.489664  7.313342
H    -1.142986  -0.923673  6.474387
H    -3.246186  -2.764269  7.377982
H    -1.270401  -5.511847  6.533894
H    -2.293137  -4.891700  7.780098
H    0.090170  -3.900058  5.399611
N    0.230257  1.531851  5.791063
C    1.264479  2.314786  6.467779
H    -0.525331  1.155464  6.351984
H    2.246043  1.840083  6.350558
H    1.017967  2.372408  7.531130
H    1.308124  3.328809  6.053255
Sr    1.685490  1.545837  1.524019
