36
Energy: -108381.127056 eV PBE+vdW (tier 2 basis)
C    -0.708648  -1.339083  0.061614
C    -0.772872  -0.773711  1.438994
O    0.250567  -0.203098  1.945849
H    0.156574  -2.010413  -0.016092
H    -0.557137  -0.514073  -0.648291
H    -1.617051  -1.883198  -0.212401
N    -1.908740  -0.879175  2.134186
C    -2.103291  -0.208968  3.424405
C    -1.145355  -0.780311  4.491050
O    -0.172953  -0.049697  4.880153
H    -2.776002  -1.076096  1.589607
H    -1.765594  0.830990  3.299654
C    -3.590535  -0.145040  3.904104
C    -4.681721  -0.964686  3.184776
C    -5.281363  -0.371729  1.901037
N    -4.358487  -0.369401  0.748497
C    -3.690116  0.781045  0.258535
N    -3.573165  1.834832  1.170217
N    -3.071983  0.853161  -0.860466
H    -3.876660  0.913212  3.880182
H    -3.605455  -0.418198  4.967884
H    -5.510684  -1.069511  3.900237
H    -4.353851  -1.994539  2.977827
H    -5.684239  0.633415  2.094928
H    -6.149934  -0.981271  1.621458
H    -4.692225  -0.942023  -0.022642
H    -3.195726  2.648396  0.686683
H    -4.430834  2.082991  1.658267
H    -3.177255  0.012213  -1.433951
N    -1.294802  -1.988085  5.016596
C    -2.296617  -3.014684  4.727046
H    -0.619009  -2.207059  5.748447
H    -1.875763  -3.985957  5.003977
H    -2.530738  -3.033527  3.659257
H    -3.212623  -2.852362  5.308871
Sr    1.452374  0.848833  3.535222
