36
Energy: -108382.924245 eV PBE+vdW (tier 2 basis)
C    -0.462427  1.884824  0.925953
C    -1.057231  1.206418  2.117932
O    -1.591833  1.864330  3.047167
H    -1.230091  2.513281  0.455292
H    -0.060003  1.189484  0.182078
H    0.338693  2.557863  1.259916
N    -1.011751  -0.145044  2.172394
C    -1.602740  -0.906935  3.273583
C    -0.675970  -0.905734  4.505370
O    -0.902054  -0.050204  5.404534
H    -0.561091  -0.643543  1.409854
H    -2.449943  -0.294859  3.598867
C    -2.199048  -2.251390  2.817999
C    -3.659457  -2.063089  2.361507
C    -4.740629  -2.266055  3.448265
N    -4.463762  -1.738202  4.799280
C    -4.376748  -0.440748  5.161052
N    -3.990954  -0.163231  6.500684
N    -4.462980  0.626267  4.410151
H    -2.148806  -2.974446  3.644546
H    -1.601063  -2.682240  2.001206
H    -3.903221  -2.786285  1.571974
H    -3.762842  -1.076024  1.885858
H    -4.891176  -3.341292  3.599472
H    -5.700772  -1.869847  3.084889
H    -4.576673  -2.408856  5.552833
H    -4.734175  0.317746  7.010935
H    -3.666519  -0.966437  7.038106
H    -4.861914  0.460852  3.485023
N    0.323892  -1.779386  4.566709
C    1.308437  -1.856917  5.646433
H    0.420425  -2.443435  3.803169
H    2.313427  -1.670396  5.249109
H    1.283501  -2.853308  6.103148
H    1.067049  -1.102452  6.398496
Sr    -2.421548  1.838519  5.272019
