36
Energy: -108381.881468 eV PBE+vdW (tier 2 basis)
C    -0.151849  0.370445  0.058645
C    -0.194750  0.097953  1.531406
O    0.874261  -0.275422  2.139924
H    0.585213  1.157861  -0.149319
H    -1.121223  0.681925  -0.342591
H    0.172482  -0.537101  -0.468324
N    -1.342401  0.252428  2.155905
C    -1.712897  -0.017450  3.541189
C    -3.248005  -0.291884  3.405045
O    -3.805763  0.061420  2.361899
H    -2.218487  0.445806  1.623337
H    -1.183869  -0.914431  3.894347
C    -1.461284  1.194768  4.496916
C    -0.507564  0.934594  5.673020
C    0.979591  0.873732  5.321589
N    1.493558  2.194034  4.959398
C    2.774690  2.444112  4.581701
N    3.231174  3.700642  4.770098
N    3.514870  1.480581  4.029318
H    -2.425814  1.523318  4.905508
H    -1.105739  2.036904  3.886697
H    -0.767721  -0.008087  6.173708
H    -0.658882  1.712651  6.438077
H    1.073031  0.193437  4.458558
H    1.554940  0.457690  6.163453
H    0.970136  2.980442  5.331156
H    4.106750  4.003584  4.362622
H    2.740830  4.375178  5.345017
H    4.486621  1.797401  3.974894
N    -3.902832  -0.866436  4.429108
C    -3.381814  -1.325921  5.708750
H    -4.904776  -0.951228  4.270852
H    -2.403828  -1.808522  5.588927
H    -4.066156  -2.078566  6.112444
H    -3.300754  -0.510854  6.442445
Sr    2.997275  -0.538233  2.819415
