36
Energy: -108382.323052 eV PBE+vdW (tier 2 basis)
C    0.208619  1.108335  0.488697
C    0.568997  1.093301  1.938107
O    1.655957  1.637433  2.329425
H    0.878857  0.434248  -0.063700
H    -0.826171  0.814603  0.290275
H    0.381283  2.118301  0.096671
N    -0.213087  0.529206  2.852461
C    -1.439807  -0.258213  2.751157
C    -1.951681  -0.330961  4.212663
O    -1.135224  -0.159482  5.145119
H    0.058828  0.631491  3.835895
H    -2.164754  0.278198  2.123509
C    -1.230798  -1.675746  2.150880
C    -0.575348  -2.778232  3.003522
C    0.920015  -2.667636  3.333828
N    1.168175  -1.757920  4.455101
C    2.215144  -0.941350  4.577956
N    2.087581  0.141161  5.507192
N    3.332408  -0.908716  3.885765
H    -0.677657  -1.561393  1.206733
H    -2.224507  -2.042276  1.857517
H    -0.696365  -3.713721  2.439851
H    -1.140838  -2.939813  3.935824
H    1.487211  -2.308131  2.460866
H    1.307444  -3.665381  3.585917
H    0.377036  -1.585266  5.078395
H    2.702796  0.005156  6.313662
H    1.129262  0.272290  5.846283
H    3.494069  -1.735731  3.310053
N    -3.236011  -0.620417  4.436611
C    -4.322006  -0.833703  3.481486
H    -3.469968  -0.697951  5.425557
H    -4.150941  -0.273062  2.556946
H    -5.253551  -0.467229  3.924638
H    -4.443938  -1.898803  3.243782
Sr    3.523951  1.512656  3.642968
