36
Energy: -108383.023383 eV PBE+vdW (tier 2 basis)
C    -3.605394  0.554852  0.376392
C    -2.915649  0.003014  1.589255
O    -2.287859  -1.084285  1.528842
H    -4.148744  1.487414  0.560780
H    -4.305998  -0.197032  -0.009328
H    -2.858771  0.728358  -0.410051
N    -3.009130  0.721212  2.726495
C    -2.456677  0.421951  4.063611
C    -0.909979  0.518573  4.042349
O    -0.215043  -0.403353  3.540264
H    -3.539436  1.584075  2.658140
H    -2.851195  1.223639  4.702121
C    -2.854565  -0.937951  4.664633
C    -4.311719  -1.403648  4.527477
C    -4.440984  -2.933836  4.659703
N    -4.037320  -3.661872  3.444287
C    -2.779582  -3.979231  3.075186
N    -2.560308  -4.282861  1.716328
N    -1.676134  -3.920483  3.785775
H    -2.577228  -0.901677  5.729224
H    -2.201121  -1.693797  4.226249
H    -4.735255  -1.105670  3.557561
H    -4.940894  -0.934013  5.296737
H    -5.485677  -3.206775  4.847760
H    -3.873318  -3.311761  5.522310
H    -4.788603  -3.932227  2.817678
H    -2.116064  -5.192082  1.586075
H    -3.356155  -4.168031  1.091692
H    -1.838914  -3.861496  4.792165
N    -0.365553  1.601485  4.588122
C    1.073476  1.854103  4.667666
H    -0.986564  2.309975  4.967685
H    1.278843  2.448148  5.563210
H    1.419220  2.405010  3.783341
H    1.605957  0.900996  4.730610
Sr    -0.452454  -2.401165  2.222169
