36
Energy: -108382.115718 eV PBE+vdW (tier 2 basis)
C    0.010986  0.480798  0.355145
C    -0.051764  0.304499  1.838226
O    0.969885  0.522491  2.560455
H    -0.332288  1.492775  0.090398
H    -0.618560  -0.238005  -0.181589
H    1.047831  0.374547  0.023222
N    -1.193647  -0.082015  2.425558
C    -2.540470  0.001224  1.863169
C    -2.855800  1.467113  1.462379
O    -2.342458  2.426202  2.066883
H    -1.129807  -0.207506  3.434164
H    -2.585284  -0.623618  0.958660
C    -3.607724  -0.541910  2.857912
C    -3.369803  -0.408163  4.375591
C    -3.039261  0.983050  4.980694
N    -1.684809  0.992622  5.561924
C    -0.637652  1.808160  5.335619
N    -0.645805  2.709058  4.241889
N    0.511073  1.779556  5.981214
H    -3.746454  -1.612306  2.656014
H    -4.561362  -0.063445  2.596465
H    -2.590369  -1.121173  4.690381
H    -4.283287  -0.788264  4.851300
H    -3.747898  1.222008  5.784225
H    -3.111578  1.788660  4.243888
H    -1.544756  0.326533  6.319514
H    -1.352766  2.543117  3.490285
H    -0.710022  3.675199  4.570101
H    0.506201  1.228883  6.841937
N    -3.726210  1.604468  0.454392
C    -4.247923  2.886293  -0.016023
H    -4.075502  0.764299  0.002285
H    -5.331920  2.936621  0.144003
H    -4.038808  3.006697  -1.085462
H    -3.759881  3.687777  0.543874
Sr    1.924978  2.049546  4.013454
