36
Energy: -108381.713181 eV PBE+vdW (tier 2 basis)
C    -0.006362  -0.443227  -0.160367
C    -0.197012  -0.754115  1.292602
O    -0.197082  -1.967836  1.678300
H    0.695139  0.382409  -0.316378
H    -0.965229  -0.158479  -0.619048
H    0.367373  -1.339308  -0.664184
N    -0.362563  0.222939  2.211546
C    -1.258774  1.388882  2.066365
C    -2.728776  0.873042  1.914699
O    -2.894753  -0.429877  1.783460
H    -0.350923  -0.152725  3.159404
H    -1.206411  1.889809  3.043099
C    -0.779029  2.419283  1.017011
C    -1.228607  3.869141  1.292123
C    -2.434485  4.313749  0.446637
N    -3.060296  5.539205  0.942632
C    -3.889715  5.579325  1.997517
N    -4.365940  6.766727  2.414784
N    -4.231480  4.453938  2.627342
H    -1.085570  2.120355  0.005184
H    0.317938  2.388944  1.035353
H    -0.390531  4.550050  1.092978
H    -1.463381  3.988233  2.359649
H    -3.195516  3.523708  0.410752
H    -2.130269  4.508757  -0.588953
H    -2.765148  6.422262  0.542192
H    -5.013339  6.830334  3.189400
H    -4.184689  7.620368  1.902561
H    -4.894743  4.501217  3.390698
N    -3.678641  1.741205  1.962905
C    -5.048232  1.246461  1.825563
H    -3.878499  3.499187  2.359457
H    -5.729914  2.095563  1.697563
H    -5.366312  0.691986  2.722526
H    -5.166578  0.578895  0.959785
Sr    -2.425996  -2.579107  1.978744
