36
Energy: -108381.109066 eV PBE+vdW (tier 2 basis)
C    -0.909403  0.377386  -0.507266
C    -0.981641  -0.110889  0.900438
O    -0.140181  -0.957751  1.340808
H    0.064031  0.863204  -0.663945
H    -1.705888  1.083814  -0.762082
H    -0.952352  -0.479289  -1.193003
N    -1.941634  0.359766  1.706476
C    -2.024498  0.045763  3.141451
C    -2.418091  -1.433449  3.352813
O    -1.493375  -2.234030  3.743957
H    -2.576531  1.062938  1.335319
H    -0.995263  0.099703  3.531171
C    -2.864636  1.079090  3.903528
C    -2.674616  0.987511  5.427651
C    -3.746373  1.757041  6.236584
N    -4.995047  1.025367  6.435843
C    -5.869113  0.690037  5.408270
N    -6.050972  1.683657  4.444320
N    -6.484932  -0.435801  5.256973
H    -3.928790  1.001379  3.646895
H    -2.540157  2.075642  3.564573
H    -1.679139  1.377127  5.693194
H    -2.695869  -0.064108  5.759302
H    -3.948622  2.731792  5.771078
H    -3.347758  1.980486  7.233792
H    -4.936116  0.301551  7.145858
H    -6.879192  1.488409  3.886487
H    -6.072516  2.632376  4.811476
H    -6.226937  -1.113286  5.979769
N    -3.630481  -1.903559  3.125759
C    -4.846830  -1.264612  2.612982
H    -3.727437  -2.893705  3.356811
H    -5.317800  -1.960483  1.909517
H    -4.610286  -0.340917  2.081925
H    -5.548459  -1.054070  3.445469
Sr    0.548976  -2.578694  2.791310
