36
Energy: -108382.315588 eV PBE+vdW (tier 2 basis)
C    0.079209  0.938447  1.590732
C    0.095585  -0.438754  2.167590
O    0.818247  -0.740300  3.150763
H    -0.639812  1.562676  2.144450
H    -0.189610  0.952580  0.529188
H    1.067174  1.390104  1.732486
N    -0.703344  -1.412066  1.635615
C    -2.087239  -1.206252  1.229301
C    -2.841049  -0.596980  2.435059
O    -2.430325  -0.866165  3.602456
H    -0.529975  -2.328059  2.059092
H    -2.113450  -0.540574  0.357868
C    -2.795678  -2.561357  0.897097
C    -1.893988  -3.714324  0.406900
C    -2.168727  -5.074936  1.089893
N    -2.439407  -5.020032  2.539275
C    -1.663682  -4.467411  3.487546
N    -2.249679  -4.222457  4.757720
N    -0.439300  -4.006315  3.374698
H    -3.581153  -2.350378  0.162150
H    -3.318610  -2.888708  1.806952
H    -0.832100  -3.456662  0.502083
H    -2.033342  -3.876342  -0.669468
H    -1.335692  -5.763900  0.886848
H    -3.063303  -5.536434  0.655953
H    -3.271901  -5.509786  2.852123
H    -1.828176  -4.805436  5.484085
H    -3.264839  -4.314323  4.794164
H    0.067453  -4.369986  2.565344
N    -3.919858  0.153566  2.244289
C    -4.563780  0.531395  0.984256
H    -4.381071  0.455636  3.102482
H    -3.831165  0.605694  0.175106
H    -5.028370  1.514055  1.111964
H    -5.340770  -0.192525  0.706969
Sr    -0.568170  -1.894498  4.766589
