36
Energy: -108382.86151 eV PBE+vdW (tier 2 basis)
C    0.172313  1.207897  3.204242
C    -0.795268  0.225320  3.781512
O    -0.622499  -0.265883  4.927977
H    0.276990  2.053571  3.896476
H    -0.120679  1.582218  2.217917
H    1.160597  0.734461  3.128972
N    -1.868675  -0.126017  3.042414
C    -2.902561  -1.039845  3.526944
C    -2.457272  -2.513184  3.410055
O    -1.970341  -3.065147  4.435933
H    -1.975534  0.288960  2.120775
H    -2.957614  -0.867527  4.609512
C    -4.294014  -0.711797  2.976673
C    -4.953917  0.459227  3.723022
C    -5.062209  0.260716  5.248468
N    -4.002899  0.972538  6.002162
C    -3.584759  0.571673  7.250930
N    -3.587851  1.524655  8.211063
N    -3.146657  -0.667597  7.455695
H    -4.925975  -1.604464  3.094661
H    -4.259007  -0.503515  1.894857
H    -5.963623  0.589974  3.313653
H    -4.424911  1.400889  3.512232
H    -5.011422  -0.799794  5.526905
H    -6.042036  0.624351  5.592173
H    -4.079193  1.984028  5.915198
H    -3.113818  1.376982  9.094300
H    -4.178064  2.346331  8.145218
H    -3.199487  -0.869255  8.460098
N    -2.595135  -3.138917  2.248127
C    -2.204813  -4.524837  1.985874
H    -3.024521  -2.626565  1.482223
H    -3.078839  -5.098991  1.656698
H    -1.806723  -4.960161  2.905012
H    -1.439078  -4.554334  1.201489
Sr    -1.273159  -1.954622  6.429436
