36
Energy: -108381.840282 eV PBE+vdW (tier 2 basis)
C    2.185301  -0.938677  0.666925
C    1.292817  -0.082218  1.512426
O    1.232829  1.168453  1.306075
H    1.851565  -0.862173  -0.377301
H    2.186945  -1.993207  0.962051
H    3.211879  -0.552914  0.702262
N    0.566636  -0.680197  2.464330
C    -0.491850  -0.081051  3.301920
C    0.101876  0.632409  4.544323
O    0.831993  1.683668  4.237316
H    0.710277  -1.679981  2.570209
H    -0.922076  0.732477  2.695994
C    -1.614457  -1.109375  3.533083
C    -1.188232  -2.507469  4.022445
C    -2.340044  -3.332671  4.665128
N    -2.077558  -3.684851  6.071061
C    -1.694440  -2.767749  6.973196
N    -0.932999  -3.112567  8.018876
N    -2.043172  -1.471379  6.831657
H    -2.174386  -1.212267  2.592223
H    -2.309537  -0.646904  4.244744
H    -0.371962  -2.421750  4.752679
H    -0.792517  -3.093502  3.179701
H    -2.483100  -4.283848  4.142402
H    -3.300139  -2.801033  4.580965
H    -2.025359  -4.669488  6.313873
H    -0.896039  -2.496775  8.823458
H    -0.493605  -4.022649  8.093625
H    -2.861831  -1.337101  6.244031
N    -0.147907  0.239285  5.747338
C    0.442360  1.028308  6.831089
H    -1.269870  -0.789603  6.545483
H    0.083394  0.646980  7.793671
H    0.170936  2.091675  6.759541
H    1.540377  0.964084  6.822103
Sr    1.514112  3.019985  2.638216
