36
Energy: -108379.611295 eV PBE+vdW (tier 2 basis)
C    -0.089384  -1.082666  0.417260
C    -0.200227  -0.251477  1.651683
O    0.879694  -0.005473  2.335460
H    0.681620  -0.658315  -0.238938
H    -1.028024  -1.158340  -0.137773
H    0.238802  -2.094911  0.692482
N    -1.334719  0.240844  2.078380
C    -2.693601  0.182768  1.527675
C    -3.349754  1.425343  2.208041
O    -2.837043  1.848889  3.253957
H    -1.376149  0.852323  2.926517
H    -2.665138  0.308271  0.435747
C    -3.389611  -1.145971  1.907587
C    -4.806695  -1.303690  1.349156
C    -5.362018  -2.728153  1.559561
N    -6.712251  -2.897901  1.045530
C    -7.051803  -2.794586  -0.298000
N    -6.055077  -3.166599  -1.189914
N    -8.171602  -2.350988  -0.765371
H    -3.395156  -1.231207  3.005140
H    -2.757882  -1.967257  1.532151
H    -4.817215  -1.092512  0.267628
H    -5.492136  -0.592470  1.831332
H    -5.388058  -2.974121  2.630089
H    -4.688941  -3.462643  1.093303
H    -7.463372  -2.645037  1.678866
H    -6.406460  -3.172012  -2.144540
H    -5.544005  -4.014551  -0.959829
H    -8.825948  -2.051513  -0.037189
N    -4.430351  1.944301  1.613178
C    -5.185184  3.074827  2.150521
H    -4.748849  1.532831  0.741807
H    -6.213563  2.771397  2.381781
H    -5.207446  3.893557  1.421681
H    -4.693883  3.414770  3.065668
Sr    2.686692  0.485173  3.443731
