36
Energy: -108380.278268 eV PBE+vdW (tier 2 basis)
C    0.104612  0.993672  -0.229872
C    0.119352  0.379086  1.130690
O    1.214839  0.105668  1.712463
H    -0.829552  0.812529  -0.770654
H    0.947434  0.587015  -0.801649
H    0.264402  2.081408  -0.158940
N    -1.042842  0.126695  1.776336
C    -2.152336  1.078404  1.828606
C    -1.635773  2.369543  2.510693
O    -0.522651  2.351333  3.141255
H    -0.933692  -0.429716  2.625698
H    -2.469478  1.320033  0.804155
C    -3.329052  0.457968  2.613765
C    -3.976010  -0.756375  1.938991
C    -4.662228  -0.440268  0.586815
N    -5.697286  -1.368891  0.210497
C    -6.927698  -1.377049  0.879002
N    -7.718808  -2.456357  0.543318
N    -7.349364  -0.519451  1.747984
H    -4.092562  1.232778  2.769625
H    -2.967503  0.193330  3.621970
H    -4.739381  -1.137134  2.632260
H    -3.248279  -1.571714  1.807620
H    -3.925797  -0.416637  -0.230985
H    -5.114332  0.566752  0.627836
H    -5.390790  -2.262676  -0.160758
H    -8.653362  -2.399081  0.936168
H    -7.699713  -2.773873  -0.420452
H    -6.647844  0.182879  1.987670
N    -2.342681  3.485122  2.452623
C    -3.615411  3.745495  1.772894
H    -1.949016  4.265234  2.980169
H    -3.571191  4.744738  1.326816
H    -4.446584  3.714442  2.488919
H    -3.793572  3.017151  0.977377
Sr    1.578810  1.474239  3.559002
