36
Energy: -108380.575241 eV PBE+vdW (tier 2 basis)
C    0.078213  0.204506  0.517782
C    0.058399  0.079220  2.006080
O    1.164893  0.083919  2.640690
H    0.967601  0.783767  0.243869
H    -0.817198  0.683034  0.114969
H    0.176624  -0.787053  0.049007
N    -1.086435  -0.010455  2.727321
C    -2.202619  -0.946403  2.489223
C    -1.694709  -2.361504  2.862958
O    -0.433274  -2.608870  2.871229
H    -0.899169  0.122761  3.722401
H    -2.979362  -0.664499  3.215605
C    -2.833086  -0.936187  1.084947
C    -3.491301  0.387370  0.664014
C    -4.762856  0.781752  1.447720
N    -5.718538  -0.303433  1.666508
C    -6.086672  -1.195566  0.656447
N    -6.515499  -0.587246  -0.500851
N    -5.943641  -2.463642  0.882276
H    -3.601030  -1.723470  1.070510
H    -2.091257  -1.249939  0.339755
H    -3.757639  0.274446  -0.396417
H    -2.786207  1.231547  0.716666
H    -5.239170  1.618435  0.917039
H    -4.512552  1.179275  2.441447
H    -5.611529  -0.799782  2.543400
H    -6.855605  -1.192446  -1.239618
H    -7.032465  0.281789  -0.406704
H    -6.404285  -3.042524  0.175413
N    -2.553458  -3.311915  3.177994
C    -4.011611  -3.230608  3.346132
H    -2.127363  -4.222244  3.349671
H    -4.264092  -2.409173  4.029452
H    -4.339481  -4.165191  3.809349
H    -4.556479  -3.098453  2.388429
Sr    1.743966  -2.048283  3.299756
