36
Energy: -108381.260044 eV PBE+vdW (tier 2 basis)
C    -2.012965  1.495189  -0.061143
C    -1.476374  1.434144  1.328282
O    -0.320590  1.927387  1.592314
H    -2.415121  2.508111  -0.222279
H    -2.823431  0.770563  -0.245693
H    -1.200849  1.360597  -0.784383
N    -2.226166  0.870293  2.273277
C    -2.022274  0.963397  3.723490
C    -0.991246  -0.079967  4.228419
O    0.053408  -0.267498  3.517715
H    -3.171411  0.479785  1.983664
H    -1.500144  1.919295  3.916081
C    -3.400809  1.058744  4.407359
C    -4.368268  -0.145162  4.300784
C    -5.391144  -0.085108  3.159048
N    -4.745977  -0.295283  1.858016
C    -5.379289  0.032506  0.616912
N    -6.542007  0.755442  0.709975
N    -4.718166  -0.302114  -0.432498
H    -3.884248  1.951544  3.983571
H    -3.237008  1.311193  5.460738
H    -4.943457  -0.198808  5.235498
H    -3.817213  -1.098348  4.235360
H    -5.860683  0.908011  3.155847
H    -6.182537  -0.828454  3.351624
H    -4.370960  -1.239669  1.756874
H    -7.183675  0.585748  1.477109
H    -7.004115  0.975743  -0.165672
H    -5.225125  -0.112809  -1.299818
N    -1.049948  -0.725625  5.389480
C    -1.971621  -0.705109  6.533765
H    -0.230141  -1.318468  5.519841
H    -1.536834  -1.348602  7.303433
H    -2.954972  -1.105276  6.271563
H    -2.070736  0.303311  6.948012
Sr    1.546327  0.852385  2.190697
