36
Energy: -108382.012748 eV PBE+vdW (tier 2 basis)
C    1.370878  0.185294  2.031876
C    0.087129  0.865955  2.435559
O    0.030868  1.269194  3.687026
H    1.649682  -0.588981  2.759250
H    1.307122  -0.274716  1.041042
H    2.187037  0.921804  2.039831
N    -0.847545  1.001665  1.539135
C    -2.059931  1.778642  1.751319
C    -2.868489  1.560454  3.035353
O    -2.775265  0.512566  3.755667
H    1.180593  1.008477  -1.140754
H    -1.784883  2.847721  1.756221
C    -3.006928  1.555401  0.530042
C    -3.254938  0.070193  0.184320
C    -2.534011  -0.399511  -1.084367
N    -1.102808  -0.109274  -0.984816
C    -0.245929  -0.195862  -1.993633
N    -0.580422  -0.799121  -3.146712
N    0.992520  0.324591  -1.861508
H    -2.553847  2.078095  -0.324041
H    -3.963651  2.060043  0.707077
H    -4.326256  -0.104989  0.026087
H    -2.961919  -0.575136  1.025050
H    -2.952736  0.116753  -1.964009
H    -2.705455  -1.480359  -1.214634
H    -0.802713  0.304038  -0.052193
H    -1.421829  -1.355253  -3.221693
H    0.027261  -0.769837  -3.955485
H    1.702463  0.184847  -2.568473
N    -3.745448  2.499871  3.406152
C    -4.062837  3.787304  2.787538
H    -4.328291  2.228203  4.196681
H    -3.180962  4.217729  2.303914
H    -4.393660  4.474274  3.573088
H    -4.867977  3.688943  2.047771
Sr    -1.072550  0.210823  5.268738
