36
Energy: -108380.665061 eV PBE+vdW (tier 2 basis)
C    -1.706563  0.369174  0.013977
C    -1.570437  0.394869  1.472570
O    -0.738746  1.187944  2.043307
H    -2.638657  0.979548  -0.271290
H    -1.915080  -0.622324  -0.403844
H    -0.843858  0.832058  -0.473359
N    -2.327216  -0.393742  2.288889
C    -2.603525  -1.816754  2.049130
C    -1.258743  -2.508341  1.682175
O    -0.149005  -1.957222  1.980304
H    -2.241986  -0.131010  3.268471
H    -2.850367  -2.224846  3.044823
C    -3.811973  -2.085476  1.133570
C    -5.141216  -1.604307  1.752753
C    -6.221119  -1.219413  0.717954
N    -6.039725  0.120797  0.154105
C    -5.021343  0.462021  -0.714206
N    -4.698143  -0.492899  -1.670486
N    -4.328397  1.562716  -0.691221
H    -3.902620  -3.166674  0.945930
H    -3.651065  -1.622437  0.151958
H    -4.961893  -0.722528  2.387451
H    -5.540425  -2.385883  2.416124
H    -7.204949  -1.231194  1.202820
H    -6.277036  -1.963113  -0.088449
H    -6.267926  0.868478  0.803020
H    -4.166409  -0.083249  -2.434142
H    -5.478077  -1.048180  -2.012502
H    -4.594852  2.168580  0.089465
N    -1.293269  -3.698151  1.112155
C    -0.111897  -4.508784  0.805328
H    -2.205347  -4.079895  0.877597
H    0.504058  -4.015816  0.043520
H    -0.447200  -5.475662  0.421893
H    0.485343  -4.668063  1.710331
Sr    1.099502  -0.076207  2.532988
