36
Energy: -108381.628588 eV PBE+vdW (tier 2 basis)
C    -0.162591  0.634278  0.235278
C    -0.121190  -0.158297  1.501248
O    0.957038  -0.715460  1.872300
H    0.121484  -0.017961  -0.601929
H    0.589828  1.432701  0.286565
H    -1.142450  1.076126  0.027853
N    -1.244249  -0.266671  2.225846
C    -1.430624  -1.057581  3.466380
C    -0.561759  -0.483764  4.595580
O    0.584384  -0.980122  4.846315
H    -2.068122  0.195197  1.852390
H    -2.478130  -0.908020  3.750138
C    -1.225682  -2.570604  3.235745
C    -2.499379  -3.282247  2.748194
C    -3.481168  -3.670700  3.862894
N    -4.132395  -2.562515  4.568699
C    -3.678857  -2.145647  5.809442
N    -4.659995  -1.630220  6.630834
N    -2.400848  -2.175365  6.054841
H    -0.914679  -3.016241  4.190931
H    -0.440738  -2.726627  2.473372
H    -2.207924  -4.214888  2.243856
H    -3.009162  -2.675819  1.982666
H    -2.959038  -4.294010  4.603321
H    -4.273214  -4.286312  3.417221
H    -5.131473  -2.481045  4.417602
H    -4.377875  -1.360977  7.566495
H    -5.591531  -2.032787  6.591298
H    -2.206385  -1.950893  7.032846
N    -0.965511  0.598859  5.245100
C    -2.266616  1.260827  5.152662
H    -0.320277  0.929795  5.960347
H    -3.076653  0.563277  5.400105
H    -2.281704  2.081427  5.874937
H    -2.427196  1.690132  4.156075
Sr    2.117155  -1.893861  3.448022
