36
Energy: -108382.398818 eV PBE+vdW (tier 2 basis)
C    -0.027604  0.395364  -0.324847
C    -0.376525  -0.064930  1.054043
O    0.498253  -0.482948  1.856828
H    0.135653  1.484672  -0.331361
H    -0.810964  0.165218  -1.056299
H    0.915061  -0.074650  -0.622995
N    -1.660791  0.018689  1.515360
C    -2.649324  0.995260  1.079973
C    -2.065426  2.399454  1.357396
O    -1.229949  2.525947  2.300550
H    -1.928506  -0.655301  2.267937
H    -2.881876  0.858055  0.014472
C    -3.950699  0.890429  1.917090
C    -4.492312  -0.518471  2.231318
C    -4.019639  -1.127988  3.557594
N    -2.681933  -1.795806  3.482125
C    -1.903747  -1.841850  4.653004
N    -1.742685  -3.051395  5.220673
N    -1.352261  -0.723921  5.079984
H    -4.717607  1.455940  1.372268
H    -3.802758  1.428365  2.867024
H    -4.321416  -1.216329  1.396894
H    -5.584786  -0.432241  2.310711
H    -4.760600  -1.863816  3.901877
H    -3.950311  -0.352876  4.331204
H    -2.763787  -2.717289  3.050428
H    -1.076839  -3.197661  5.972155
H    -2.350292  -3.832063  4.998132
H    -1.014627  -0.844486  6.040584
N    -2.470641  3.453290  0.660071
C    -3.447575  3.523570  -0.427648
H    -2.080958  4.340216  0.980581
H    -3.116379  4.278410  -1.148204
H    -4.435733  3.810386  -0.045287
H    -3.525080  2.565148  -0.948607
Sr    -0.069947  0.967051  3.717043
