36
Energy: -108379.587068 eV PBE+vdW (tier 2 basis)
C    0.239694  0.516072  0.626923
C    -0.082852  0.452283  2.082809
O    0.762053  0.961026  2.930116
H    0.484119  1.550749  0.353922
H    -0.572704  0.160779  -0.012301
H    1.133341  -0.092501  0.428596
N    -1.178948  -0.094638  2.544697
C    -2.319167  -0.717567  1.862567
C    -3.426642  -0.611720  2.956924
O    -3.065679  -0.490136  4.135390
H    -1.394135  -0.094415  3.567577
H    -2.593375  -0.131743  0.973262
C    -1.995331  -2.180897  1.481246
C    -3.094734  -2.909938  0.700476
C    -2.601103  -4.270626  0.193391
N    -3.635371  -4.956022  -0.555821
C    -3.332141  -5.975890  -1.455724
N    -4.435625  -6.572319  -2.014284
N    -2.157882  -6.413546  -1.790931
H    -1.752391  -2.730557  2.403393
H    -1.075768  -2.166589  0.874666
H    -3.419377  -2.311367  -0.165895
H    -3.976453  -3.060548  1.341785
H    -2.231422  -4.875257  1.043148
H    -1.748091  -4.111877  -0.482685
H    -4.523745  -5.068990  -0.074196
H    -4.225517  -7.278979  -2.711053
H    -5.278491  -6.031826  -2.168705
H    -1.398510  -5.974629  -1.267088
N    -4.698204  -0.672702  2.541358
C    -5.846361  -0.635831  3.445246
H    -4.879545  -0.732694  1.544798
H    -6.433526  -1.557685  3.353684
H    -6.485793  0.223204  3.209793
H    -5.476135  -0.543604  4.469424
Sr    2.154599  1.864976  4.342490
