36
Energy: -108381.480957 eV PBE+vdW (tier 2 basis)
C    -1.173807  -0.439937  -0.508709
C    -0.830497  -0.273901  0.931000
O    0.387115  -0.080068  1.285889
H    -2.255097  -0.547310  -0.682583
H    -0.640724  -1.311411  -0.913727
H    -0.797735  0.438220  -1.052990
N    -1.808034  -0.318141  1.834146
C    -1.669494  0.070681  3.245897
C    -1.082622  -1.075646  4.092695
O    0.158618  -1.341483  4.002752
H    -2.811402  -0.425306  1.507975
H    -0.883458  0.843286  3.284213
C    -2.960814  0.766983  3.733954
C    -4.309214  0.022549  3.926461
C    -4.758735  -1.031803  2.903100
N    -4.565401  -0.577210  1.526158
C    -4.852745  -1.415018  0.400033
N    -5.422399  -2.631412  0.699122
N    -4.444584  -0.970097  -0.731433
H    -3.114904  1.588186  3.019490
H    -2.722452  1.263511  4.685421
H    -5.071925  0.813806  3.979086
H    -4.369451  -0.443698  4.924717
H    -5.808477  -1.280788  3.138402
H    -4.183400  -1.964140  3.018509
H    -4.904988  0.365752  1.338268
H    -5.646264  -3.224275  -0.093473
H    -6.105577  -2.687618  1.448126
H    -4.755247  -1.542880  -1.519863
N    -1.858458  -1.757749  4.915605
C    -1.392446  -2.849350  5.773947
H    -2.836395  -1.487404  4.970250
H    -2.218952  -3.160580  6.417694
H    -0.556422  -2.511556  6.396951
H    -1.066567  -3.702320  5.166520
Sr    1.968605  -0.761231  2.704996
