36
Energy: -108382.614072 eV PBE+vdW (tier 2 basis)
C    -0.517255  -1.768303  0.149679
C    -0.359694  -0.862498  1.327758
O    0.739008  -0.291474  1.576554
H    -0.804737  -1.182283  -0.737399
H    -1.271451  -2.546427  0.308941
H    0.451507  -2.229699  -0.070031
N    -1.407106  -0.628587  2.160147
C    -2.776521  -0.408733  1.726711
C    -2.829050  0.971956  1.001327
O    -1.822810  1.733978  1.004908
H    -1.159819  -0.033345  2.961369
H    -3.045552  -1.182252  0.992360
C    -3.762117  -0.520955  2.911468
C    -3.705850  0.534342  4.034741
C    -2.542254  0.456919  5.041569
N    -1.305054  1.122790  4.580824
C    -1.151659  2.512514  4.568978
N    -2.074697  3.256582  5.206360
N    -0.133249  2.992465  3.881945
H    -3.636159  -1.528225  3.335298
H    -4.780995  -0.507921  2.498733
H    -3.770801  1.552147  3.618222
H    -4.628532  0.405020  4.617589
H    -2.274436  -0.590001  5.236455
H    -2.869474  0.851701  6.016916
H    -0.445581  0.673101  4.892200
H    -2.033893  4.268383  5.163323
H    -2.672890  2.860457  5.922349
H    0.045744  3.971439  4.122519
N    -3.965136  1.291707  0.393386
C    -4.210013  2.532446  -0.342655
H    -4.716287  0.606494  0.402812
H    -5.222686  2.886948  -0.123902
H    -4.116343  2.362540  -1.422951
H    -3.483190  3.285608  -0.029623
Sr    0.466812  2.082407  1.654787
