36
Energy: -108379.681574 eV PBE+vdW (tier 2 basis)
C    -0.821661  -1.279006  0.507230
C    -0.354770  -0.483466  1.679593
O    0.796024  -0.791182  2.219909
H    -0.018201  -1.338114  -0.238086
H    -1.716479  -0.862912  0.036798
H    -1.042841  -2.306482  0.830359
N    -1.036779  0.501205  2.195150
C    -2.310949  1.112642  1.802663
C    -2.196166  2.500517  2.514295
O    -1.320601  2.620654  3.392726
H    -0.662538  1.101545  2.980135
H    -2.340942  1.248925  0.712015
C    -3.519623  0.261691  2.266712
C    -4.846909  0.618304  1.568126
C    -5.828506  1.466957  2.402131
N    -6.931179  1.984808  1.597733
C    -6.707764  2.866448  0.544531
N    -5.725435  3.848954  0.825479
N    -7.264648  2.870584  -0.609317
H    -3.610709  0.335202  3.361247
H    -3.276205  -0.788658  2.055596
H    -5.358273  -0.309873  1.278529
H    -4.643529  1.145217  0.622301
H    -5.309459  2.302230  2.890278
H    -6.261496  0.864122  3.211281
H    -7.677184  1.320115  1.412441
H    -5.707229  4.498609  0.037837
H    -5.949149  4.363581  1.679936
H    -7.902618  2.084379  -0.761359
N    -3.024307  3.473321  2.141159
C    -3.000232  4.787466  2.779773
H    -3.780977  3.318172  1.459852
H    -1.971081  5.052919  3.039360
H    -3.602718  4.797389  3.698942
H    -3.399059  5.525283  2.076783
Sr    2.713198  -1.215162  3.110735
