36
Energy: -108383.103523 eV PBE+vdW (tier 2 basis)
C    0.565534  -0.072678  0.480130
C    -0.097127  -0.292808  1.806084
O    0.404360  -1.076712  2.651494
H    0.612004  -1.033214  -0.051145
H    1.600950  0.252314  0.644376
H    0.055507  0.659484  -0.154329
N    -1.242770  0.382144  2.042410
C    -2.148525  0.270362  3.204924
C    -1.458192  0.779213  4.493290
O    -0.678303  0.048198  5.156533
H    -1.561302  0.987056  1.291758
H    -2.975278  0.958636  2.978060
C    -2.725977  -1.143432  3.369077
C    -3.808649  -1.264367  4.462270
C    -3.869229  -2.648202  5.134959
N    -2.882035  -2.807776  6.214188
C    -1.577951  -3.108032  6.062326
N    -0.705412  -2.759331  7.117130
N    -0.965617  -3.581415  5.002988
H    -1.901505  -1.832538  3.568083
H    -3.141764  -1.445560  2.398103
H    -4.794219  -1.048028  4.027151
H    -3.658624  -0.514689  5.254872
H    -3.754897  -3.459556  4.402080
H    -4.852163  -2.799024  5.595654
H    -3.213382  -2.616375  7.154249
H    -0.179784  -3.561948  7.465956
H    -1.121514  -2.239225  7.887801
H    -1.597021  -3.977690  4.305336
N    -1.747276  2.026184  4.861168
C    -1.182009  2.708345  6.023627
H    -2.385692  2.557996  4.276520
H    -0.375864  3.387281  5.716769
H    -0.783675  1.963406  6.716781
H    -1.967449  3.288936  6.518572
Sr    0.780848  -1.822958  4.849756
