36
Energy: -108381.438279 eV PBE+vdW (tier 2 basis)
C    1.983491  0.831843  1.393300
C    1.219994  0.543017  2.642836
O    1.824783  0.497252  3.771589
H    2.408145  1.843797  1.459221
H    1.362670  0.751150  0.495412
H    2.831283  0.138420  1.318285
N    -0.092993  0.339268  2.558517
C    -0.937640  0.121323  3.743208
C    -0.605770  -1.236449  4.398169
O    0.068960  -1.231582  5.483225
H    -0.545593  0.494756  1.606161
H    -0.633466  0.856153  4.506612
C    -2.435787  0.326465  3.456651
C    -2.875235  1.809828  3.345202
C    -3.870652  2.090166  2.198031
N    -3.226355  2.216125  0.875606
C    -2.487499  1.148225  0.378403
N    -3.181170  -0.034101  0.242296
N    -1.209841  1.164827  0.103922
H    -2.995025  -0.154255  4.271706
H    -2.711759  -0.215026  2.544343
H    -1.999963  2.464123  3.202116
H    -3.332684  2.123636  4.293737
H    -4.389613  3.038252  2.381486
H    -4.651504  1.318521  2.160495
H    -2.700907  3.085286  0.805211
H    -2.721839  -0.700374  -0.371399
H    -4.177141  0.055784  0.064370
H    -0.837105  2.108350  0.249041
N    -0.981283  -2.395205  3.877231
C    -1.707522  -2.682548  2.637642
H    -0.726485  -3.202846  4.446183
H    -1.390296  -3.668579  2.283761
H    -1.470594  -1.946118  1.865813
H    -2.790360  -2.702168  2.811871
Sr    2.064811  -0.179844  5.903163
