36
Energy: -108382.084404 eV PBE+vdW (tier 2 basis)
C    -1.399327  -0.153879  0.432798
C    -0.901819  -0.226335  1.848078
O    0.399409  -0.254575  1.998986
H    -1.035466  -1.021427  -0.134103
H    -0.989557  0.739899  -0.056712
H    -2.490756  -0.116032  0.378607
N    -1.777066  -0.258417  2.818874
C    -1.357998  -0.401673  4.223546
C    -0.339716  0.656285  4.668470
O    0.900403  0.402566  4.809471
H    -3.332548  -0.859139  2.681246
H    -2.262765  -0.194185  4.814505
C    -0.923850  -1.838082  4.574524
C    -1.889314  -2.919681  4.067015
C    -3.201029  -3.129847  4.825864
N    -4.183737  -2.012835  4.909934
C    -4.924389  -1.525926  3.879059
N    -6.239520  -1.325764  4.078889
N    -4.349630  -1.213859  2.721313
H    -0.785700  -1.918004  5.663496
H    0.059926  -2.050527  4.127522
H    -1.377144  -3.890767  4.139158
H    -2.085444  -2.778004  2.996381
H    -2.977944  -3.370198  5.873287
H    -3.706530  -4.008458  4.397066
H    -4.674151  -1.991573  5.799358
H    -6.785843  -0.750621  3.447884
H    -6.747146  -1.830390  4.796266
H    -4.952683  -0.996571  1.934506
N    -0.782263  1.885005  4.921910
C    -2.153824  2.383291  4.815645
H    -0.073332  2.536427  5.255116
H    -2.652584  1.937495  3.949392
H    -2.114631  3.467242  4.670500
H    -2.722973  2.177079  5.732171
Sr    2.285997  -0.260085  3.104765
