36
Energy: -108382.009872 eV PBE+vdW (tier 2 basis)
C    2.444896  -0.329941  1.551456
C    1.293392  0.222151  2.331236
O    1.392909  0.390765  3.596770
H    3.348939  0.261005  1.748534
H    2.255532  -0.358403  0.473898
H    2.645803  -1.352774  1.900183
N    0.185955  0.537156  1.685700
C    -1.098490  0.961694  2.236448
C    -1.997335  1.042778  0.963185
O    -1.435387  1.101278  -0.136064
H    0.122569  0.493118  0.651781
H    -1.465446  0.178250  2.916351
C    -1.092906  2.307598  3.002143
C    -0.426891  3.503095  2.300214
C    1.066738  3.720063  2.539854
N    1.365461  4.024450  3.990990
C    2.736130  4.407773  4.220085
N    3.066662  5.694246  4.036807
N    3.509213  3.432952  4.614912
H    -0.660680  2.147595  4.003580
H    -2.142263  2.559774  3.201799
H    -0.958584  4.423037  2.589035
H    -0.567478  3.424176  1.211673
H    1.406850  4.554481  1.907568
H    1.666626  2.846190  2.259815
H    0.739228  4.778176  4.290903
H    4.004482  6.033140  4.230424
H    2.421618  6.360377  3.626469
H    4.498079  3.678243  4.695953
N    -3.334055  1.068056  1.106396
C    -4.145488  0.914903  2.308202
H    -3.828352  1.157386  0.220431
H    -5.052062  0.355475  2.053514
H    -4.448387  1.885521  2.726551
H    -3.613468  0.341067  3.074842
Sr    1.914080  1.713123  5.348697
