36
Energy: -108380.715844 eV PBE+vdW (tier 2 basis)
C    -1.418831  -0.603250  0.213352
C    -1.297579  -0.761939  1.676787
O    -0.310105  -1.377817  2.208424
H    -1.667516  0.422428  -0.089296
H    -2.305130  -1.219364  -0.105309
H    -0.511312  -0.941227  -0.291921
N    -2.256669  -0.283011  2.508192
C    -2.885039  1.023846  2.360172
C    -1.767029  2.085754  2.508682
O    -0.614148  1.752793  2.950989
H    -2.167637  -0.608794  3.470516
H    -3.320745  1.096428  1.348510
C    -4.029728  1.230230  3.403410
C    -5.446851  1.364203  2.818276
C    -6.202161  0.053309  2.516216
N    -5.431198  -0.997941  1.859874
C    -4.877155  -0.978422  0.598141
N    -4.973845  0.242741  -0.086811
N    -4.185162  -1.923528  0.050257
H    -3.812013  2.129666  3.995454
H    -3.995210  0.394002  4.118470
H    -5.409729  1.996402  1.921691
H    -6.064249  1.918384  3.539472
H    -7.121307  0.301095  1.957285
H    -6.543811  -0.381661  3.463954
H    -5.502146  -1.920560  2.270525
H    -4.734764  0.098054  -1.066635
H    -5.880005  0.701683  -0.011994
H    -4.127797  -2.760518  0.636130
N    -1.999038  3.344224  2.171689
C    -3.221396  3.925403  1.611905
H    -1.225603  3.985062  2.347343
H    -2.943298  4.806077  1.025334
H    -3.911963  4.233590  2.406990
H    -3.719150  3.210240  0.948897
Sr    1.018067  0.148411  3.293604
