36
Energy: -108381.85683 eV PBE+vdW (tier 2 basis)
C    -0.019909  0.339679  -1.100076
C    0.256553  0.260438  0.369417
O    1.461610  0.098977  0.790804
H    0.550219  1.170229  -1.537752
H    -1.081278  0.485838  -1.323855
H    0.316172  -0.587080  -1.584797
N    -0.757937  0.356440  1.202453
C    -0.748359  0.314257  2.665091
C    -2.256864  0.104993  2.997679
O    -3.071817  0.544446  2.182648
H    -1.722633  0.525707  0.865689
H    -0.108848  -0.515141  2.995783
C    -0.248860  1.674773  3.216596
C    0.099493  1.759539  4.707378
C    1.213174  0.835211  5.217549
N    2.389848  0.873725  4.345562
C    3.467874  0.054674  4.426881
N    3.605950  -0.701078  5.534494
N    4.298592  -0.005334  3.378841
H    -1.019206  2.427134  2.996073
H    0.623463  1.965033  2.611881
H    -0.789290  1.576031  5.326150
H    0.381293  2.802551  4.916133
H    0.872791  -0.208669  5.269532
H    1.468017  1.148399  6.243781
H    2.517321  1.697341  3.769159
H    4.335111  -1.401681  5.589628
H    3.144830  -0.456899  6.403505
H    5.207948  -0.376415  3.667884
N    -2.629324  -0.489457  4.148519
C    -1.837373  -1.220210  5.126613
H    -3.640738  -0.504283  4.270255
H    -0.910541  -1.594457  4.678055
H    -2.408083  -2.091861  5.465914
H    -1.596801  -0.608084  6.007527
Sr    3.688389  -0.061835  1.045243
