36
Energy: -108382.721547 eV PBE+vdW (tier 2 basis)
C    0.069672  -0.261883  2.417063
C    -1.251347  -0.366220  3.110813
O    -1.335880  -0.808639  4.288684
H    0.547559  0.700674  2.657716
H    -0.010270  -0.347755  1.328163
H    0.726200  -1.049518  2.802576
N    -2.389075  0.025234  2.476098
C    -2.476755  1.233795  1.669961
C    -2.381120  2.460078  2.631455
O    -2.407654  2.298091  3.885228
H    -3.245795  -0.147387  3.014269
H    -1.597631  1.267456  1.010079
C    -3.730499  1.239240  0.759559
C    -5.119350  1.535845  1.356713
C    -5.755913  0.504237  2.296731
N    -5.122642  0.559940  3.621996
C    -5.400312  -0.268754  4.693441
N    -6.322498  -1.232593  4.525112
N    -4.674413  -0.083020  5.785524
H    -3.740679  0.268781  0.241805
H    -3.558036  1.982571  -0.032082
H    -5.803745  1.646075  0.504402
H    -5.127405  2.522923  1.850580
H    -5.640752  -0.510886  1.887953
H    -6.835159  0.720399  2.365193
H    -4.905041  1.506133  3.924510
H    -6.472463  -1.933679  5.240946
H    -6.987795  -1.213254  3.761530
H    -5.054217  -0.609931  6.575152
N    -2.275892  3.657718  2.069061
C    -2.170477  4.928044  2.788480
H    -2.228260  3.700053  1.054005
H    -2.798714  5.676046  2.293303
H    -1.130992  5.280170  2.791362
H    -2.509646  4.788661  3.817477
Sr    -2.349960  0.760784  5.767421
