36
Energy: -108382.026274 eV PBE+vdW (tier 2 basis)
C    -0.476982  -0.201517  0.095608
C    -0.268467  0.036100  1.562506
O    0.850830  0.305905  2.030485
H    -1.530441  -0.256838  -0.200068
H    0.013079  -1.148245  -0.172655
H    0.024948  0.590760  -0.471400
N    -1.376823  -0.055303  2.365148
C    -1.375875  -0.152394  3.832663
C    -0.903915  1.139376  4.528513
O    -1.636467  1.650075  5.462209
H    -2.254008  -0.279512  1.908234
H    -2.434900  -0.248862  4.105185
C    -0.605080  -1.421052  4.303842
C    -0.437526  -1.685466  5.810082
C    -1.691594  -2.049664  6.615383
N    -2.519623  -0.864743  6.845666
C    -3.364328  -0.611672  7.865849
N    -3.756165  -1.633130  8.649777
N    -3.761544  0.659011  8.053195
H    0.397938  -1.379146  3.859709
H    -1.115452  -2.275856  3.835803
H    0.079688  -0.847144  6.305418
H    0.251668  -2.536589  5.897288
H    -1.379288  -2.461399  7.586676
H    -2.267983  -2.829860  6.090997
H    -2.317091  -0.059846  6.261026
H    -4.327909  -1.471800  9.468809
H    -3.556229  -2.597021  8.413243
H    -4.519299  0.698160  8.738128
N    0.246543  1.651918  4.177158
C    0.831313  2.856734  4.748806
H    0.708479  1.147049  3.355304
H    0.194113  3.731686  4.559889
H    1.802152  3.026757  4.275793
H    0.984867  2.741675  5.830168
Sr    -2.878781  2.657751  7.080998
