36
Energy: -108382.43947 eV PBE+vdW (tier 2 basis)
C    0.661557  -0.288683  0.704194
C    0.187284  -0.551623  2.100603
O    0.989243  -0.975785  2.981253
H    1.414529  0.510933  0.735652
H    -0.138936  0.006611  0.018033
H    1.161828  -1.183693  0.313485
N    -1.108782  -0.323862  2.376697
C    -1.725656  -0.395371  3.711239
C    -1.210103  -1.625337  4.483085
O    -0.658194  -1.340521  5.644097
H    -1.688956  0.019272  1.615797
H    -1.351875  0.461148  4.292741
C    -3.256622  -0.260837  3.618207
C    -3.917560  -0.001747  4.981594
C    -4.102798  -1.260422  5.848607
N    -4.460709  -0.951069  7.234003
C    -3.597756  -0.576108  8.189865
N    -4.069686  -0.210648  9.393532
N    -2.279621  -0.558691  7.962655
H    -3.703647  -1.139383  3.130986
H    -3.475476  0.600607  2.969104
H    -4.902604  0.455039  4.816930
H    -3.325754  0.744549  5.533278
H    -3.211493  -1.901337  5.857700
H    -4.910342  -1.885824  5.448477
H    -5.445357  -0.958274  7.475754
H    -3.448763  -0.013347  10.167872
H    -5.062215  -0.190039  9.591104
H    -1.657101  -0.227876  8.688712
N    -1.093411  -2.847358  4.036627
C    -1.625280  -3.311881  2.763094
H    -1.837492  -0.850855  7.080593
H    -2.029092  -4.322050  2.902773
H    -0.823144  -3.392720  2.010896
H    -2.417574  -2.683491  2.337909
Sr    1.233999  -2.455766  4.801327
