36
Energy: -108381.903537 eV PBE+vdW (tier 2 basis)
C    2.656865  2.248406  2.936449
C    1.223587  2.143464  3.360094
O    0.727658  3.011588  4.141769
H    2.789892  3.194918  2.394183
H    3.303028  2.295231  3.822025
H    2.985019  1.423446  2.295444
N    0.500275  1.125384  2.878836
C    -0.951361  0.898436  3.024986
C    -1.280279  0.195969  4.368804
O    -1.062201  0.961455  5.417154
H    1.001189  0.463921  2.293162
H    -1.397964  1.900301  3.123678
C    -1.518710  0.279061  1.731557
C    -0.730679  -0.898195  1.132546
C    -1.475268  -1.711006  0.051682
N    -2.849434  -2.128838  0.387589
C    -3.272683  -2.473378  1.612186
N    -4.564641  -2.325940  1.945147
N    -2.428547  -2.928461  2.559938
H    -1.598697  1.077371  0.979243
H    -2.547619  -0.020110  1.967321
H    -0.373254  -1.559673  1.931822
H    0.169862  -0.532001  0.613767
H    -0.869610  -2.587654  -0.222620
H    -1.574167  -1.106877  -0.859186
H    -3.540645  -2.048132  -0.352247
H    -4.927965  -2.853588  2.730740
H    -5.225718  -1.838226  1.352283
H    -1.561332  -3.313510  2.197363
N    -1.752095  -1.002945  4.423779
C    -2.045214  -1.536133  5.756444
H    -2.248326  -2.243462  3.364917
H    -2.413477  -2.563755  5.661570
H    -2.812400  -0.938391  6.270889
H    -1.150406  -1.548214  6.395364
Sr    -0.382152  2.911272  6.151568
