36
Energy: -108380.729361 eV PBE+vdW (tier 2 basis)
C    -0.182481  0.020679  -0.085823
C    -0.146197  0.017783  1.405637
O    0.939064  0.237174  2.031487
H    0.129921  1.012792  -0.442111
H    -1.171087  -0.209429  -0.495879
H    0.548414  -0.701187  -0.473460
N    -1.282025  -0.207623  2.078785
C    -1.433492  -0.073603  3.537076
C    -0.768306  -1.268874  4.258761
O    0.426095  -1.102140  4.683854
H    -2.132981  -0.333630  1.534648
H    -0.810419  0.782563  3.839599
C    -2.882775  0.248690  3.938012
C    -3.316065  1.702962  3.700395
C    -3.464655  2.133940  2.218367
N    -4.376489  3.225686  2.001663
C    -5.763242  3.023351  2.115948
N    -6.473555  4.208050  2.090903
N    -6.379933  1.899954  2.250137
H    -2.984509  0.022059  5.009815
H    -3.579219  -0.427665  3.418930
H    -2.636816  2.393070  4.225306
H    -4.297282  1.820851  4.181085
H    -3.834434  1.280925  1.619144
H    -2.490625  2.419391  1.791666
H    -4.050359  4.146528  2.279929
H    -7.478040  4.060041  2.066392
H    -6.157676  4.923354  1.443233
H    -5.749315  1.107648  2.381669
N    -1.360599  -2.437005  4.446384
C    -2.683407  -2.917747  4.032762
H    -0.792493  -3.099581  4.975654
H    -2.644803  -4.010718  4.002547
H    -2.938219  -2.559269  3.031510
H    -3.456527  -2.613732  4.748587
Sr    2.293051  -0.091015  3.832132
