36
Energy: -108382.233334 eV PBE+vdW (tier 2 basis)
C    -0.081840  -1.942903  -0.126281
C    0.114931  -0.785878  0.800326
O    0.918415  0.151827  0.461828
H    0.888224  -2.398179  -0.363439
H    -0.485296  -1.555542  -1.072643
H    -0.757049  -2.712569  0.255673
N    -0.528040  -0.692325  1.954322
C    -1.420146  -1.631635  2.632492
C    -2.186451  -0.733649  3.643710
O    -1.672973  0.341792  3.985748
H    -0.456393  0.179074  2.504699
H    -2.122385  -2.062486  1.905868
C    -0.648159  -2.780787  3.337376
C    -0.005364  -2.496954  4.707175
C    0.985202  -1.333932  4.837776
N    2.134311  -1.438087  3.928581
C    2.696849  -0.398345  3.296586
N    3.697966  -0.675972  2.308280
N    2.392960  0.873849  3.374710
H    0.104355  -3.158160  2.628321
H    -1.352197  -3.612688  3.480590
H    -0.791948  -2.301454  5.450850
H    0.478119  -3.427575  5.042474
H    1.349982  -1.289049  5.874744
H    0.475332  -0.384577  4.633316
H    2.628601  -2.326940  3.911751
H    4.627968  -0.418920  2.649989
H    3.724618  -1.649334  2.001076
H    1.780270  1.115898  4.154664
N    -3.341556  -1.221985  4.113348
C    -4.170802  -0.535454  5.102859
H    -3.693435  -2.091314  3.724215
H    -4.355252  -1.192267  5.961054
H    -5.130939  -0.245700  4.658992
H    -3.642041  0.361785  5.434488
Sr    2.651510  1.500110  1.020089
