36
Energy: -108382.001088 eV PBE+vdW (tier 2 basis)
C    0.083673  -1.217108  0.084504
C    -0.164181  0.036105  0.865924
O    0.778899  0.900951  1.004161
H    0.907034  -1.777764  0.547697
H    0.390351  -0.959632  -0.938179
H    -0.797122  -1.864745  0.034904
N    -1.353905  0.217150  1.394931
C    -1.825465  1.281705  2.276858
C    -2.910249  0.547004  3.127343
O    -3.363100  -0.511732  2.682333
H    -2.070091  -0.537631  1.379965
H    -0.991832  1.634375  2.899522
C    -2.492705  2.433375  1.490869
C    -1.585940  3.266091  0.575899
C    -0.623602  4.191196  1.327212
N    0.051244  5.128662  0.431445
C    1.375048  5.406151  0.382560
N    1.717390  6.609479  -0.129471
N    2.293862  4.522599  0.792469
H    -2.990269  3.098888  2.211693
H    -3.298020  1.991655  0.887217
H    -2.242604  3.888244  -0.051186
H    -1.029095  2.624600  -0.122656
H    0.145995  3.633154  1.874783
H    -1.179100  4.768274  2.085171
H    -0.558109  5.789476  -0.041542
H    1.041720  7.353270  -0.258728
H    2.668582  6.804018  -0.415193
H    3.182925  5.022097  0.896052
N    -3.329059  1.100644  4.279330
C    -2.901053  2.335954  4.919948
H    -4.080077  0.578216  4.726921
H    -1.867112  2.579472  4.651094
H    -2.934905  2.204591  6.006951
H    -3.550099  3.183127  4.654667
Sr    2.637268  2.142558  0.926002
