36
Energy: -108382.244907 eV PBE+vdW (tier 2 basis)
C    -1.575365  0.333672  1.057784
C    -0.983246  -0.389737  2.234005
O    -0.093212  -1.309684  1.951037
H    -2.320681  1.072726  1.364257
H    -2.036719  -0.387878  0.370249
H    -0.780500  0.843468  0.496570
N    -1.388247  -0.063760  3.433029
C    -0.917844  -0.789765  4.626966
C    0.605409  -0.746261  4.801952
O    1.364174  -1.712803  4.468457
H    -3.942404  2.214997  3.423035
H    -1.317365  -0.213051  5.476367
C    -1.496468  -2.213317  4.771858
C    -2.982318  -2.353450  4.391400
C    -3.977117  -1.413526  5.085143
N    -3.900382  -0.055512  4.538688
C    -4.815548  0.889587  4.726628
N    -5.873869  0.693830  5.529841
N    -4.680622  2.073911  4.099265
H    -1.342667  -2.539267  5.811534
H    -0.937220  -2.928577  4.150333
H    -3.288620  -3.378951  4.638201
H    -3.108756  -2.254667  3.303430
H    -3.794531  -1.400968  6.174248
H    -4.990373  -1.811329  4.920171
H    -3.034244  0.165820  3.973772
H    -6.630106  1.364521  5.581843
H    -5.974952  -0.156071  6.067658
H    -5.305613  2.848213  4.279951
N    1.147969  0.352050  5.319838
C    0.467610  1.574252  5.750249
H    2.158712  0.313319  5.441777
H    -0.337436  1.827083  5.053092
H    1.196445  2.390376  5.744554
H    0.071473  1.471398  6.769362
Sr    1.529837  -2.700883  2.405103
