36
Energy: -108383.191367 eV PBE+vdW (tier 2 basis)
C    -0.879143  0.616326  0.158874
C    -0.919625  0.156731  1.583986
O    -0.750879  -1.055955  1.872479
H    -1.675121  0.102229  -0.397159
H    0.074171  0.310700  -0.291227
H    -1.003204  1.697492  0.038916
N    -1.145110  1.091573  2.530843
C    -1.344285  0.890398  3.980821
C    -0.036681  0.441054  4.669154
O    0.333941  -0.762375  4.651128
H    -1.269218  2.041346  2.193981
H    -1.582945  1.892227  4.364792
C    -2.548496  -0.016688  4.298373
C    -2.769809  -0.265838  5.805167
C    -2.544797  -1.714155  6.257264
N    -3.469516  -2.653052  5.628769
C    -3.139386  -3.801983  4.980781
N    -4.112213  -4.743082  4.922430
N    -1.947091  -3.968730  4.411883
H    -2.467620  -0.972744  3.763698
H    -3.425551  0.473387  3.856471
H    -3.791931  0.031963  6.076417
H    -2.118068  0.376998  6.417077
H    -2.664303  -1.772558  7.349931
H    -1.523924  -2.049419  6.042820
H    -4.439024  -2.573559  5.919070
H    -4.025680  -5.541711  4.307681
H    -4.916259  -4.726630  5.537808
H    -1.855052  -4.960386  4.170499
N    0.663149  1.385350  5.292050
C    1.930739  1.164466  5.987117
H    0.307617  2.336741  5.265685
H    1.952240  1.775718  6.895104
H    2.775266  1.446714  5.345113
H    2.014746  0.107979  6.253974
Sr    -0.096013  -2.712334  3.392594
