36
Energy: -108380.022125 eV PBE+vdW (tier 2 basis)
C    -0.197520  0.247936  0.828418
C    -0.637642  -0.351207  2.118465
O    -0.525346  -1.602176  2.319269
H    -0.821989  1.084730  0.498878
H    -0.138520  -0.517317  0.049612
H    0.816547  0.655831  0.981877
N    -1.132050  0.416056  3.122259
C    -2.158678  1.461547  2.970463
C    -3.354789  0.825686  2.198904
O    -3.448164  -0.441339  2.090262
H    -1.180858  -0.088429  4.006144
H    -2.535849  1.610643  3.995735
C    -1.703453  2.852808  2.480526
C    -0.554955  3.492498  3.281693
C    0.842310  3.034410  2.861973
N    1.867952  3.823267  3.534079
C    3.226313  3.496973  3.323382
N    3.529284  3.238841  1.985111
N    4.138506  3.404511  4.217135
H    -2.574117  3.519782  2.582156
H    -1.456452  2.835576  1.409341
H    -0.711454  3.321937  4.359951
H    -0.611901  4.580555  3.136187
H    0.947388  3.171027  1.776038
H    0.976497  1.953616  3.064401
H    1.682902  3.967883  4.524314
H    4.531642  3.098537  1.875071
H    3.183663  3.940830  1.333391
H    3.781299  3.499528  5.171572
N    -4.284631  1.620774  1.705431
C    -5.505622  1.160662  1.036537
H    -4.149169  2.623518  1.803483
H    -6.109898  2.035488  0.783947
H    -6.080438  0.506388  1.702088
H    -5.256548  0.619204  0.116149
Sr    -2.610296  -2.601565  2.257005
