36
Energy: -108382.097558 eV PBE+vdW (tier 2 basis)
C    0.796148  1.009305  0.538713
C    0.271799  0.227055  1.705074
O    1.091337  -0.428952  2.450123
H    0.014004  1.571243  0.018859
H    1.261159  0.316760  -0.176746
H    1.574098  1.707987  0.874172
N    -1.025035  0.240027  1.924809
C    -1.835634  -0.445990  2.929823
C    -3.281184  0.025919  2.557186
O    -3.404706  0.928612  1.722847
H    -1.667075  0.825777  1.345620
H    -1.757213  -1.533640  2.773485
C    -1.444842  -0.118793  4.384890
C    -1.399107  1.376724  4.729779
C    -0.447597  1.680849  5.891817
N    0.923687  1.334922  5.503592
C    1.901950  0.802535  6.271894
N    1.780134  0.894459  7.611046
N    2.915910  0.171492  5.662670
H    -0.461025  -0.571995  4.573882
H    -2.145187  -0.638206  5.054206
H    -2.398944  1.750230  4.987094
H    -1.082588  1.969306  3.856329
H    -0.714525  1.081259  6.773873
H    -0.519274  2.742905  6.170252
H    1.191880  1.552435  4.550403
H    1.180593  1.588361  8.042189
H    2.421209  0.403301  8.221651
H    3.713951  0.092114  6.298627
N    -4.294677  -0.580035  3.192042
C    -5.700465  -0.257001  2.946802
H    -4.091023  -1.362914  3.804397
H    -6.220697  -0.108772  3.899733
H    -6.190160  -1.064744  2.388592
H    -5.745631  0.662896  2.358090
Sr    2.876782  -1.122992  3.629270
