36
Energy: -108382.320422 eV PBE+vdW (tier 2 basis)
C    0.296651  0.185918  0.424234
C    0.330015  0.640124  1.855633
O    1.209756  1.458607  2.232035
H    0.149007  1.064030  -0.218421
H    -0.488711  -0.546646  0.209909
H    1.271061  -0.244406  0.160714
N    -0.607596  0.128695  2.677788
C    -0.914667  0.486285  4.077971
C    0.362764  0.950294  4.793067
O    1.369242  0.131938  4.787540
H    -1.286173  -0.480907  2.229724
H    -1.623845  1.326284  4.052272
C    -1.636717  -0.679148  4.784680
C    -0.838487  -1.975199  4.977505
C    -1.693650  -3.147705  5.476622
N    -2.244427  -2.988092  6.832524
C    -1.708379  -3.470200  7.961379
N    -2.447160  -3.523458  9.080283
N    -0.439316  -3.898357  7.991252
H    -2.556219  -0.893441  4.211539
H    -1.976577  -0.289719  5.756554
H    0.012487  -1.796113  5.649719
H    -0.393814  -2.292756  4.022495
H    -1.118175  -4.083231  5.454360
H    -2.554434  -3.308012  4.812568
H    -3.146898  -2.533260  6.920551
H    -2.022166  -3.691484  9.984319
H    -3.458098  -3.469235  9.049632
H    0.203761  -3.699166  7.236591
N    0.531122  2.171488  5.250064
C    -0.534713  3.170427  5.243405
H    -0.096965  -4.464165  8.758450
H    -0.858694  3.448543  4.226063
H    -0.167931  4.079240  5.732380
H    -1.419929  2.843329  5.808648
Sr    2.653885  1.928355  4.050306
