36
Energy: -108382.724191 eV PBE+vdW (tier 2 basis)
C    0.185664  0.831124  0.081060
C    -0.701029  0.367008  1.201179
O    -1.129654  -0.815170  1.211374
H    -0.372595  0.741413  -0.861071
H    1.052208  0.162452  0.003038
H    0.538561  1.862240  0.186424
N    -0.986419  1.280583  2.153113
C    -1.901532  1.301483  3.316681
C    -1.620027  0.226893  4.377150
O    -1.324333  -0.964939  4.097474
H    -0.554749  2.183990  1.983642
H    -1.644567  2.254381  3.797436
C    -3.401450  1.455521  2.935713
C    -4.139882  0.267234  2.292523
C    -5.024602  -0.527933  3.270555
N    -5.532781  -1.764227  2.680752
C    -4.743110  -2.843441  2.446978
N    -5.116560  -3.712366  1.477790
N    -3.600391  -3.048689  3.097247
H    -3.436695  2.318366  2.256945
H    -3.935071  1.785408  3.840994
H    -3.428760  -0.410138  1.805614
H    -4.783511  0.649268  1.488795
H    -5.895121  0.067324  3.573334
H    -4.486743  -0.755432  4.204210
H    -6.464893  -1.746315  2.280751
H    -4.808928  -4.674311  1.556288
H    -5.936105  -3.543826  0.906573
H    -3.632002  -2.515317  3.972334
N    -1.728138  0.596401  5.656449
C    -1.997846  1.920981  6.223780
H    -1.555056  -0.159323  6.317346
H    -1.950953  1.834797  7.312806
H    -2.997581  2.283263  5.955700
H    -1.240554  2.651867  5.912517
Sr    -1.267106  -2.735521  2.536885
