36
Energy: -108381.271385 eV PBE+vdW (tier 2 basis)
C    -0.278487  -0.782989  -1.146088
C    -0.436953  0.426961  -0.216729
O    0.724588  1.029907  0.051801
H    -1.206977  -1.268475  -1.463916
H    0.346815  -1.543303  -0.663633
H    0.267012  -0.443108  -2.032948
N    -1.022004  0.054392  1.174606
C    -1.890299  -1.099856  1.463305
C    -0.951086  -2.332517  1.561229
O    0.258102  -2.151889  1.875847
H    -1.443922  0.902064  1.553653
H    -2.204886  -0.953255  2.513703
C    -3.190529  -1.255756  0.641658
C    -4.289218  -0.196590  0.872043
C    -4.071073  1.244541  0.371715
N    -3.747749  1.340780  -1.058090
C    -2.519968  1.167438  -1.569390
N    -2.370198  0.747768  -2.831563
N    -1.408076  1.442342  -0.834233
H    -3.665347  -2.207240  0.925440
H    -2.965584  -1.354793  -0.429326
H    -4.518656  -0.126700  1.947302
H    -5.207575  -0.578471  0.402993
H    -3.296572  1.767416  0.945458
H    -4.991116  1.819709  0.529799
H    -4.532616  1.395384  -1.704122
H    -1.496474  0.935675  -3.311147
H    -3.141023  0.377219  -3.377492
H    -1.527306  2.229727  -0.198118
N    -1.434424  -3.553919  1.373551
C    -0.637313  -4.770927  1.549998
H    -2.410459  -3.659212  1.120782
H    0.197504  -4.788288  0.839502
H    -1.281373  -5.635558  1.371393
H    -0.237265  -4.819917  2.569357
Sr    1.487810  -0.084955  1.866756
