36
Energy: -108380.975559 eV PBE+vdW (tier 2 basis)
C    -0.712851  0.099686  -0.233839
C    -0.674644  -0.137941  1.232627
O    0.315093  -0.724835  1.782968
H    0.204174  0.605476  -0.566165
H    -1.611202  0.638650  -0.573041
H    -0.696863  -0.891562  -0.715853
N    -1.701507  0.261782  2.023503
C    -2.323989  1.586688  1.924305
C    -1.225479  2.637363  2.153254
O    -0.082451  2.304820  2.630861
H    -1.640327  -0.099030  2.977370
H    -2.714439  1.720891  0.887227
C    -3.472303  1.720336  2.972839
C    -4.921258  1.629102  2.467145
C    -5.360723  0.322376  1.787906
N    -4.726405  0.075291  0.485534
C    -4.749669  1.054550  -0.504482
N    -6.000737  1.462747  -0.869897
N    -3.612701  1.520155  -0.943829
H    -3.361585  2.681390  3.494179
H    -3.304447  0.957481  3.751806
H    -5.130678  2.468361  1.786099
H    -5.570323  1.791913  3.340774
H    -6.451829  0.342025  1.669833
H    -5.143587  -0.549164  2.420825
H    -3.802540  -0.337654  0.553670
H    -6.092203  2.147963  -1.610055
H    -6.767559  0.803299  -0.791186
H    -3.724902  2.081363  -1.792794
N    -1.465897  3.898401  1.837915
C    -2.682799  4.455656  1.238730
H    -0.717004  4.553395  2.060456
H    -3.151744  3.720219  0.575202
H    -2.400552  5.331865  0.647226
H    -3.393149  4.767464  2.015040
Sr    1.561899  0.754193  3.033530
