36
Energy: -108381.267518 eV PBE+vdW (tier 2 basis)
C    -0.164894  1.003618  0.199369
C    0.117135  0.328563  1.502157
O    1.223844  -0.271612  1.689052
H    0.579598  1.799004  0.051646
H    -1.167375  1.440246  0.146305
H    -0.035542  0.289106  -0.623581
N    -0.812755  0.384240  2.459947
C    -0.671205  -0.048735  3.858511
C    -0.878271  -1.581453  3.958364
O    0.131889  -2.298579  3.617061
H    -1.679685  0.877657  2.249322
H    0.396085  0.053571  4.104464
C    -1.461957  0.894981  4.797163
C    -2.704097  1.559091  4.186339
C    -3.749804  1.948738  5.243908
N    -4.964409  2.455610  4.634105
C    -5.852735  1.579434  4.026064
N    -7.089822  2.122729  3.774604
N    -5.476889  0.360991  3.770530
H    -0.760301  1.669612  5.134446
H    -1.730205  0.333692  5.702900
H    -3.236409  0.885537  3.494524
H    -2.422887  2.463487  3.625736
H    -3.351607  2.732722  5.901181
H    -3.969534  1.068182  5.872821
H    -5.384779  3.249682  5.102669
H    -7.720440  1.603547  3.177249
H    -7.196292  3.129496  3.726507
H    -6.219544  -0.155224  3.295011
N    -1.968674  -2.200716  4.368626
C    -3.277043  -1.735447  4.849741
H    -1.844448  -3.214322  4.376421
H    -3.953339  -2.594150  4.807772
H    -3.724138  -0.934476  4.242414
H    -3.204775  -1.411372  5.895276
Sr    2.106053  -2.195218  2.503906
