36
Energy: -108381.473104 eV PBE+vdW (tier 2 basis)
C    -0.317017  -1.091321  0.157936
C    -0.330385  -0.776436  1.615810
O    0.742366  -0.844451  2.306286
H    -0.787903  -2.083964  0.015229
H    0.709992  -1.116836  -0.214757
H    -0.903816  -0.366219  -0.419146
N    -1.500512  -0.449121  2.170687
C    -1.823794  -0.340385  3.605548
C    -1.121112  0.848178  4.282609
O    0.081968  0.778181  4.682810
H    -2.352064  -0.657130  1.597997
H    -2.895213  -0.096200  3.597372
C    -1.650630  -1.674875  4.383916
C    -2.969416  -2.266949  4.911158
C    -4.039475  -2.596482  3.848408
N    -3.565667  -3.446766  2.765356
C    -3.187759  -3.052989  1.499756
N    -3.733764  -1.814118  1.054011
N    -2.382213  -3.650170  0.695309
H    -0.976945  -1.524731  5.240936
H    -1.166554  -2.401747  3.716980
H    -3.421989  -1.590815  5.654108
H    -2.722966  -3.186325  5.462958
H    -4.451598  -1.676496  3.414798
H    -4.884611  -3.085443  4.353778
H    -3.245648  -4.373192  3.029079
H    -3.651388  -1.799191  0.035909
H    -4.716171  -1.690553  1.302114
H    -1.973893  -4.499592  1.093663
N    -1.840089  1.946241  4.463655
C    -1.361142  3.171620  5.103627
H    -2.793511  1.948338  4.111255
H    -2.191270  3.633577  5.646933
H    -0.989189  3.878210  4.350195
H    -0.558169  2.925915  5.803470
Sr    1.994246  -0.324205  4.075715
