36
Energy: -108380.460298 eV PBE+vdW (tier 2 basis)
C    0.098902  0.703767  1.649500
C    -0.891249  1.199084  2.632735
O    -0.611207  1.172954  3.879520
H    0.062309  1.268886  0.714530
H    -0.041573  -0.365008  1.378646
H    1.093286  0.782865  2.103084
N    -2.087379  1.755142  2.278548
C    -3.158612  1.166239  1.456422
C    -3.946956  0.196887  2.375192
O    -3.385148  -0.310049  3.405281
H    -2.474980  2.276593  3.066284
H    -3.820833  2.002456  1.185993
C    -2.733441  0.429022  0.174938
C    -2.223351  1.325215  -0.961114
C    -1.658528  0.514089  -2.149858
N    -0.447617  -0.240601  -1.848877
C    -0.388288  -1.420293  -1.123114
N    -1.519734  -2.230127  -1.217369
N    0.581410  -1.800345  -0.351720
H    -3.608089  -0.128612  -0.187641
H    -2.008349  -0.352036  0.428271
H    -1.448734  2.018803  -0.600381
H    -3.046014  1.957804  -1.331184
H    -1.422973  1.206248  -2.968263
H    -2.431158  -0.160798  -2.542904
H    0.415270  0.292128  -1.849621
H    -1.316217  -3.156247  -0.848851
H    -1.928624  -2.286308  -2.147157
H    1.345891  -1.119012  -0.341124
N    -5.202883  -0.111815  2.095703
C    -6.050346  0.347999  0.992602
H    -5.622570  -0.793004  2.728993
H    -5.698314  1.304457  0.597037
H    -7.068723  0.483396  1.371626
H    -6.068623  -0.395799  0.185699
Sr    -1.814437  -0.359807  5.088248
