36
Energy: -108382.771918 eV PBE+vdW (tier 2 basis)
C    -1.083822  0.017987  -0.155810
C    -1.277874  -0.365567  1.280294
O    -0.845292  -1.464328  1.713295
H    -1.598566  -0.720826  -0.785741
H    -0.016533  -0.038216  -0.404905
H    -1.458509  1.016581  -0.403339
N    -1.934739  0.514971  2.066342
C    -2.382821  0.355701  3.467276
C    -1.174258  0.335979  4.423013
O    -0.398694  -0.650558  4.486893
H    -2.236071  1.369321  1.607669
H    -2.950124  1.273964  3.674115
C    -3.362554  -0.826137  3.620327
C    -4.038908  -1.004317  4.995228
C    -3.349052  -1.954518  5.994420
N    -3.067361  -3.258703  5.372128
C    -1.834868  -3.722514  5.053561
N    -0.733657  -3.350928  5.859036
N    -1.485165  -4.433698  4.009154
H    -2.870094  -1.755512  3.307209
H    -4.145217  -0.648090  2.870496
H    -5.053467  -1.389842  4.817459
H    -4.191241  -0.036289  5.496682
H    -3.996111  -2.092442  6.870724
H    -2.407544  -1.522339  6.353712
H    -3.810712  -3.605027  4.768955
H    -0.218650  -4.186921  6.140786
H    -0.957061  -2.797641  6.683070
H    -2.270992  -4.757029  3.440482
N    -1.009057  1.421246  5.180389
C    0.085389  1.623194  6.127799
H    -1.665150  2.187910  5.062610
H    -0.313639  2.022403  7.066709
H    0.816280  2.333615  5.720571
H    0.577969  0.665705  6.313417
Sr    0.254643  -2.687537  3.393946
