36
Energy: -108382.257359 eV PBE+vdW (tier 2 basis)
C    -1.946716  4.913562  2.658469
C    -1.530990  3.842245  1.702790
O    -0.394861  3.849082  1.161176
H    -1.614156  4.655321  3.676334
H    -3.030018  5.073094  2.676823
H    -1.437492  5.843683  2.383514
N    -2.390400  2.821165  1.415474
C    -3.188690  2.146608  2.433836
C    -2.217557  1.626563  3.526267
O    -0.998868  1.444409  3.230660
H    -2.045251  2.204119  0.679327
H    -3.898626  2.867366  2.861136
C    -3.963093  0.925753  1.858360
C    -4.566728  1.074624  0.439652
C    -3.873050  0.243437  -0.657085
N    -2.486794  0.652129  -0.921664
C    -1.342511  0.187840  -0.354167
N    -1.398004  -0.934098  0.426551
N    -0.177807  0.824739  -0.424932
H    -4.766767  0.701828  2.569965
H    -3.293306  0.055507  1.891140
H    -4.595086  2.130437  0.132635
H    -5.615764  0.750049  0.462870
H    -4.427199  0.343857  -1.598937
H    -3.903150  -0.827607  -0.412860
H    -2.375067  1.464256  -1.521578
H    -0.524593  -1.449054  0.474732
H    -2.212247  -1.534841  0.355105
H    -0.189931  1.532128  -1.166306
N    -2.667891  1.349484  4.744026
C    -4.023886  1.477912  5.281083
H    -1.966430  0.957055  5.372255
H    -4.593783  2.233693  4.732976
H    -3.957041  1.793889  6.327244
H    -4.554339  0.518138  5.236001
Sr    0.772993  1.797938  1.647598
