36
Energy: -108382.039564 eV PBE+vdW (tier 2 basis)
C    -0.648443  -1.378111  0.545990
C    -0.700020  -0.907643  1.970703
O    -0.131058  -1.595460  2.890706
H    0.395433  -1.529073  0.235705
H    -1.124523  -0.683800  -0.153699
H    -1.159177  -2.348369  0.472617
N    -1.338165  0.217844  2.222918
C    -1.670337  0.831575  3.505978
C    -2.745881  1.888429  3.095364
O    -2.845378  2.184106  1.898943
H    -1.805937  0.762795  1.468975
H    -2.117522  0.068332  4.161014
C    -0.481175  1.480889  4.248785
C    0.297164  2.579713  3.499492
C    1.516127  2.099815  2.697004
N    2.480022  1.410640  3.567258
C    2.907332  0.150573  3.408263
N    3.353520  -0.549941  4.565253
N    2.851979  -0.605156  2.336144
H    0.199486  0.680201  4.576165
H    -0.888370  1.905733  5.176265
H    0.639074  3.331203  4.226504
H    -0.359029  3.127003  2.807020
H    1.220153  1.397278  1.909146
H    2.007708  2.950636  2.206624
H    2.774950  1.913309  4.400951
H    4.328881  -0.845473  4.480449
H    3.222355  -0.056978  5.448966
H    2.679406  -0.086436  1.474302
N    -3.469503  2.428610  4.085975
C    -4.501244  3.442224  3.866743
H    -3.358829  2.064748  5.026750
H    -4.325562  4.304054  4.520729
H    -5.495604  3.027789  4.073661
H    -4.455385  3.760298  2.822006
Sr    1.864248  -2.580689  3.374873
