36
Energy: -108380.37547 eV PBE+vdW (tier 2 basis)
C    0.144628  1.147389  0.038399
C    0.011591  0.476595  1.364941
O    1.038600  0.118834  2.024993
H    -0.739825  1.016418  -0.593108
H    1.025231  0.735695  -0.469112
H    0.327569  2.225737  0.169858
N    -1.210257  0.255738  1.898219
C    -2.280377  1.252643  1.907518
C    -1.789526  2.451157  2.754027
O    -0.751021  2.324656  3.495571
H    -1.204719  -0.355675  2.715892
H    -2.465124  1.590004  0.877072
C    -3.572955  0.621387  2.470273
C    -4.099671  -0.506893  1.582780
C    -5.430001  -1.108630  2.087912
N    -5.920243  -2.171558  1.225280
C    -6.222512  -1.894526  -0.120993
N    -7.113107  -0.831475  -0.274327
N    -5.643127  -2.592559  -1.029480
H    -4.335036  1.406598  2.569418
H    -3.374682  0.265445  3.496624
H    -3.356653  -1.314832  1.498229
H    -4.258824  -0.127843  0.560594
H    -6.187541  -0.315589  2.160177
H    -5.307751  -1.522902  3.099283
H    -5.349090  -3.014897  1.253434
H    -7.439865  -0.698352  -1.226373
H    -7.881431  -0.818190  0.393241
H    -6.046127  -2.438220  -1.958465
N    -2.443731  3.600869  2.732728
C    -3.620067  3.984316  1.947193
H    -2.080366  4.308714  3.371664
H    -3.487190  5.016626  1.606310
H    -4.527470  3.928940  2.561860
H    -3.735200  3.341468  1.070466
Sr    1.273428  1.334530  3.986291
