36
Energy: -108382.316378 eV PBE+vdW (tier 2 basis)
C    -2.205444  1.785332  0.185093
C    -0.992340  0.914278  0.249251
O    0.164174  1.400940  0.317102
H    -2.455831  2.152994  1.192001
H    -3.080176  1.279959  -0.236277
H    -1.961671  2.667774  -0.418439
N    -1.135984  -0.445178  0.249798
C    -2.153818  -1.140289  1.028560
C    -2.122280  -0.574242  2.474094
O    -1.046625  -0.098365  2.930449
H    -0.262686  -0.959041  0.124122
H    -3.142961  -0.975526  0.576139
C    -1.871298  -2.669795  1.112553
C    -1.268214  -3.367303  -0.130134
C    0.228408  -3.723983  -0.044074
N    1.138629  -2.566109  -0.085490
C    1.790169  -1.941816  0.930340
N    1.487369  -2.288206  2.258558
N    2.578890  -0.900998  0.827927
H    -2.827895  -3.146278  1.359685
H    -1.232446  -2.852892  1.989428
H    -1.459400  -2.786548  -1.044599
H    -1.796540  -4.318783  -0.279463
H    0.493784  -4.369525  -0.891183
H    0.438983  -4.318784  0.856300
H    1.393031  -2.240684  -1.015322
H    2.338424  -2.431419  2.803050
H    0.846760  -3.066203  2.393551
H    2.885535  -0.693803  -0.124988
N    -3.243430  -0.655767  3.179855
C    -3.399965  -0.253608  4.577912
H    -4.066868  -1.026372  2.711359
H    -3.745889  -1.107127  5.172733
H    -4.136044  0.555822  4.652796
H    -2.436337  0.091405  4.958647
Sr    1.219441  0.581168  2.336051
