36
Energy: -108382.741951 eV PBE+vdW (tier 2 basis)
C    0.085152  -0.102502  0.683636
C    -0.549393  0.048367  2.028345
O    -0.001427  0.722288  2.941072
H    0.277749  0.894438  0.265691
H    -0.520620  -0.679567  -0.022711
H    1.061732  -0.591542  0.800890
N    -1.740915  -0.553389  2.248184
C    -2.433638  -0.416408  3.526123
C    -1.844047  -1.350259  4.606330
O    -1.037912  -0.849470  5.439795
H    -2.157434  -1.099362  1.498883
H    -2.156843  0.581114  3.881020
C    -3.963876  -0.414968  3.456100
C    -4.617364  0.829623  2.803719
C    -3.890575  2.186862  2.876781
N    -3.253220  2.473136  4.169823
C    -2.290322  3.423573  4.365332
N    -2.326650  4.504024  3.553644
N    -1.346807  3.200802  5.276563
H    -4.309005  -0.496801  4.497749
H    -4.349941  -1.317848  2.957238
H    -5.619101  0.930061  3.242470
H    -4.787554  0.647837  1.734085
H    -4.630690  2.958144  2.611296
H    -3.098132  2.233846  2.114589
H    -3.547459  1.975731  5.001967
H    -1.574035  5.181482  3.573381
H    -3.192801  4.804980  3.120666
H    -0.923851  4.087963  5.568357
N    -2.200040  -2.628478  4.624075
C    -1.717272  -3.625474  5.580914
H    -2.872945  -2.942751  3.930016
H    -2.570589  -4.098050  6.080829
H    -1.088270  -3.128707  6.322818
H    -1.135291  -4.394907  5.059133
Sr    0.151900  1.217010  5.266014
