36
Energy: -108381.345456 eV PBE+vdW (tier 2 basis)
C    -2.269874  2.164020  0.612867
C    -1.560025  1.445683  1.706946
O    -0.284557  1.306318  1.678142
H    -1.967075  3.221326  0.626391
H    -3.360410  2.092047  0.716592
H    -1.950898  1.755372  -0.354834
N    -2.267717  0.948905  2.718239
C    -1.649285  0.311834  3.885301
C    -0.916385  -0.980893  3.471609
O    0.361119  -0.984326  3.497693
H    -3.287307  1.209088  2.848024
H    -0.844050  0.967519  4.258064
C    -2.663864  0.095268  5.025112
C    -3.160834  1.349958  5.771274
C    -3.831334  2.461494  4.941464
N    -4.614852  1.908419  3.832800
C    -5.225180  2.734991  2.834734
N    -5.347325  4.062931  3.153553
N    -5.487498  2.139834  1.725792
H    -2.184052  -0.559888  5.766621
H    -3.522941  -0.469645  4.643275
H    -2.336261  1.804586  6.338761
H    -3.870861  0.986106  6.528088
H    -3.072063  3.124346  4.501088
H    -4.423079  3.082781  5.635155
H    -5.255959  1.160767  4.094540
H    -5.499740  4.336818  4.118632
H    -5.798775  4.664390  2.472966
H    -6.032929  2.722829  1.084638
N    -1.557287  -2.072729  3.078457
C    -2.990071  -2.322740  2.890548
H    -0.938457  -2.860180  2.884027
H    -3.444528  -2.713406  3.809291
H    -3.097913  -3.075085  2.102723
H    -3.507211  -1.415179  2.567435
Sr    1.695761  0.431406  2.279617
