36
Energy: -108382.835733 eV PBE+vdW (tier 2 basis)
C    0.235395  -0.472295  0.603201
C    -0.568498  -0.003571  1.773092
O    -0.185020  0.955051  2.491011
H    0.401769  0.374045  -0.076261
H    -0.234319  -1.292102  0.049885
H    1.223925  -0.796495  0.955528
N    -1.732961  -0.638814  2.044932
C    -2.608945  -0.213312  3.136232
C    -2.078176  -0.683968  4.506351
O    -1.484185  0.179329  5.213499
H    -2.020687  -1.401522  1.438500
H    -2.457323  0.869426  3.191095
C    -4.106024  -0.406152  2.829301
C    -4.671799  0.827892  2.098823
C    -5.309823  1.918008  2.988581
N    -4.621250  2.269356  4.246286
C    -3.422140  2.875070  4.370775
N    -2.903107  3.030541  5.685163
N    -2.583210  3.230184  3.432240
H    -4.651578  -0.580854  3.767729
H    -4.261666  -1.308263  2.221831
H    -5.467887  0.519753  1.407840
H    -3.888299  1.256490  1.455419
H    -6.303343  1.578778  3.304340
H    -5.471554  2.826531  2.388846
H    -5.208856  2.259815  5.073965
H    -2.819692  4.016788  5.939064
H    -3.404190  2.525466  6.415358
H    -2.984020  3.250587  2.493575
N    -2.212657  -1.937020  4.931451
C    -2.862341  -3.068333  4.269181
H    -1.809981  -2.110590  5.851911
H    -3.946648  -3.066210  4.437433
H    -2.448833  -3.991603  4.685726
H    -2.656783  -3.069732  3.194147
Sr    -0.495958  2.258519  4.460889
