36
Energy: -108381.495325 eV PBE+vdW (tier 2 basis)
C    0.135170  -2.543667  1.937043
C    -0.099591  -1.325432  2.793237
O    0.865334  -1.036911  3.641847
H    1.007730  -2.362349  1.294111
H    -0.726246  -2.788598  1.309398
H    0.381972  -3.419151  2.553997
N    -1.212693  -0.663173  2.643412
C    -1.440508  0.627624  3.283921
C    -1.166187  0.763718  4.785396
O    -1.144014  -0.224562  5.587308
H    -2.484403  -1.406834  1.605754
H    -0.780965  1.369892  2.798026
C    -2.914445  1.066479  3.028502
C    -3.157142  1.570475  1.587752
C    -4.505766  1.161583  0.942215
N    -4.349340  0.195154  -0.163910
C    -3.605085  -0.912774  -0.053769
N    -2.993262  -1.437769  -1.122777
N    -3.435659  -1.520109  1.144473
H    -3.209512  1.847883  3.740287
H    -3.548569  0.203476  3.273224
H    -2.345268  1.224413  0.933025
H    -3.089327  2.666123  1.582627
H    -5.004681  2.029532  0.498710
H    -5.207378  0.766423  1.692932
H    -4.663654  0.482952  -1.086065
H    -2.933376  -0.946880  -2.007584
H    -2.704115  -2.408898  -1.096313
H    -4.164464  -1.284674  1.813629
N    -0.977527  1.990307  5.284959
C    -0.948120  3.277850  4.590820
H    -0.925568  2.021627  6.301742
H    -0.374971  3.208107  3.660054
H    -0.454207  4.004953  5.242053
H    -1.959391  3.642855  4.368138
Sr    0.697961  -1.586777  5.770967
