36
Energy: -108382.78972 eV PBE+vdW (tier 2 basis)
C    0.572352  0.290061  1.059350
C    -0.265034  -0.229517  2.189440
O    0.148803  -1.160187  2.922592
H    0.847293  -0.546458  0.403970
H    1.507929  0.695267  1.468217
H    0.080870  1.066164  0.463634
N    -1.474322  0.340648  2.373582
C    -2.492830  0.052641  3.404627
C    -1.927729  0.346473  4.820892
O    -1.220416  -0.500536  5.426054
H    -1.714906  1.081635  1.722873
H    -3.281810  0.785400  3.194720
C    -3.132165  -1.360252  3.389672
C    -3.071879  -2.169913  2.091595
C    -3.536378  -3.638094  2.287372
N    -3.087027  -4.254137  3.547974
C    -1.804214  -4.335055  3.970686
N    -0.771072  -4.233026  3.019780
N    -1.368648  -4.390275  5.208344
H    -4.178200  -1.236315  3.707445
H    -2.660662  -1.938430  4.193130
H    -2.047021  -2.156664  1.696388
H    -3.701584  -1.725187  1.308569
H    -3.223880  -4.253789  1.431295
H    -4.630644  -3.694496  2.309088
H    -3.775538  -4.259562  4.294573
H    -0.110333  -5.004316  3.122121
H    -1.059676  -4.150763  2.047744
H    -2.102921  -4.551599  5.901141
N    -2.236442  1.523483  5.356284
C    -1.789136  1.975105  6.674319
H    -2.811989  2.160859  4.813843
H    -2.539032  2.656514  7.086876
H    -0.828618  2.501249  6.598538
H    -1.677239  1.110843  7.335133
Sr    0.172824  -2.396843  4.928204
