36
Energy: -108381.985848 eV PBE+vdW (tier 2 basis)
C    -1.240308  2.348096  -0.736995
C    -0.939239  1.328519  0.316055
O    0.183544  1.367332  0.947264
H    -1.185475  3.355079  -0.302021
H    -2.228855  2.210948  -1.186186
H    -0.481906  2.287536  -1.529460
N    -1.838315  0.403271  0.573644
C    -1.760622  -0.690615  1.536169
C    -2.981867  -1.577723  1.143263
O    -3.868430  -1.068982  0.453802
H    -2.751553  0.363929  0.079789
H    -0.813538  -1.234802  1.391750
C    -1.850188  -0.160586  2.984578
C    -1.379706  -1.142901  4.065291
C    -0.841727  -0.415381  5.307142
N    0.353036  0.382331  5.004108
C    1.611919  -0.077686  4.802922
N    1.942191  -1.274459  5.331549
N    2.453779  0.655869  4.063072
H    -2.878758  0.172783  3.182633
H    -1.218295  0.738469  3.022714
H    -0.577848  -1.792122  3.675093
H    -2.196364  -1.808055  4.376965
H    -0.635082  -1.128613  6.116616
H    -1.589698  0.278755  5.710701
H    0.241501  1.382595  4.901146
H    1.422932  -1.667441  6.108343
H    2.850108  -1.681173  5.144159
H    3.420616  0.402656  4.290961
N    -3.001746  -2.833160  1.621709
C    -4.098194  -3.766251  1.361795
H    -2.181011  -3.186902  2.100223
H    -4.376355  -4.279746  2.288788
H    -3.807514  -4.509346  0.608354
H    -4.954072  -3.197509  0.988826
Sr    2.142361  1.799424  1.949818
