36
Energy: -108382.334331 eV PBE+vdW (tier 2 basis)
C    0.509817  0.719119  1.169736
C    -0.375200  -0.253286  1.877236
O    0.095916  -1.164458  2.613507
H    0.869875  1.478402  1.880626
H    0.016029  1.220902  0.331611
H    1.396246  0.183213  0.809242
N    -1.726616  -0.167631  1.761291
C    -2.505428  1.063533  1.757435
C    -2.029796  1.929055  2.949419
O    -1.563103  1.346230  3.972725
H    -2.237292  -0.960677  2.182060
H    -2.396351  1.592901  0.801340
C    -3.999242  0.738010  2.028976
C    -4.705195  -0.343173  1.187556
C    -4.309856  -1.837816  1.362450
N    -3.585926  -2.162747  2.608918
C    -4.090017  -2.020470  3.898766
N    -5.424191  -1.887477  4.032164
N    -3.208331  -1.952755  4.878724
H    -4.559138  1.671703  1.883969
H    -4.104287  0.501734  3.099020
H    -4.617667  -0.107083  0.118094
H    -5.772178  -0.233598  1.422366
H    -3.624299  -2.136985  0.560992
H    -5.205110  -2.466183  1.231720
H    -2.950777  -2.954293  2.533224
H    -5.834974  -1.704513  4.940912
H    -6.055284  -2.226729  3.314357
H    -3.663822  -2.075459  5.787819
N    -2.153524  3.249928  2.912229
C    -2.685825  4.090077  1.836390
H    -1.880024  3.723530  3.773035
H    -2.388206  3.709000  0.854297
H    -2.269194  5.095295  1.948925
H    -3.780090  4.157824  1.888802
Sr    -0.951783  -0.844789  4.758339
