36
Energy: -108382.169803 eV PBE+vdW (tier 2 basis)
C    -0.318053  -0.739338  -0.692409
C    0.051697  -0.519097  0.738375
O    1.256473  -0.693290  1.121661
H    0.474933  -0.329887  -1.329022
H    -1.275814  -0.287723  -0.967682
H    -0.369288  -1.818538  -0.898631
N    -0.853784  -0.144908  1.637812
C    -2.310695  -0.077263  1.565035
C    -2.732090  0.604679  2.886609
O    -1.998663  0.498091  3.892675
H    -0.520747  0.036501  2.591504
H    -2.607611  0.560229  0.721694
C    -3.009980  -1.470821  1.395406
C    -2.295984  -2.741933  1.890389
C    -2.112287  -2.969908  3.403321
N    -1.118511  -2.109424  4.050097
C    0.208687  -2.243039  4.040560
N    0.827854  -3.344227  3.374972
N    1.088478  -1.384919  4.523047
H    -3.196846  -1.612816  0.322618
H    -4.004093  -1.409893  1.861427
H    -1.325175  -2.849142  1.379276
H    -2.901778  -3.585358  1.526775
H    -1.851641  -4.022000  3.587251
H    -3.058844  -2.804148  3.934595
H    -1.457281  -1.161853  4.292744
H    1.285137  -3.959187  4.053089
H    0.196481  -3.907715  2.806173
H    0.673420  -0.658235  5.110140
N    -3.891915  1.268011  2.912888
C    -4.800911  1.555101  1.801238
H    -4.119937  1.664458  3.822744
H    -5.201500  0.638101  1.351717
H    -4.313169  2.163729  1.028464
H    -5.644415  2.128133  2.195637
Sr    2.713257  -1.467281  2.716208
