36
Energy: -108380.378 eV PBE+vdW (tier 2 basis)
C    -1.170232  0.849749  -1.165528
C    -0.312871  0.732580  0.051178
O    0.916228  1.059635  0.018240
H    -1.565352  1.874118  -1.258057
H    -2.014558  0.152819  -1.158182
H    -0.546598  0.666807  -2.048304
N    -0.837810  0.296774  1.217272
C    -2.132139  0.735900  1.734967
C    -2.029762  2.257136  2.029442
O    -0.894801  2.848907  1.963582
H    -0.146273  0.103155  1.943298
H    -2.895884  0.594060  0.955553
C    -2.539511  -0.077549  2.974198
C    -1.528690  -0.080526  4.135894
C    -2.217302  -0.274913  5.517040
N    -3.212954  -1.326799  5.567890
C    -4.523948  -1.199145  5.103336
N    -5.051156  0.109629  5.208485
N    -5.260352  -2.113697  4.592775
H    -2.745143  -1.101996  2.638167
H    -3.500885  0.308515  3.333533
H    -0.973057  0.874569  4.192740
H    -0.781243  -0.876798  3.990591
H    -2.690404  0.671398  5.806607
H    -1.447666  -0.481065  6.273001
H    -2.862730  -2.279119  5.549788
H    -6.050902  0.050366  5.013790
H    -4.911444  0.520755  6.132109
H    -4.767324  -3.001512  4.463826
N    -3.113574  2.942297  2.345486
C    -4.507383  2.484682  2.433869
H    -2.945363  3.924586  2.563036
H    -5.154101  3.353587  2.280825
H    -4.716349  2.039925  3.418126
H    -4.726854  1.749662  1.652231
Sr    1.305432  2.957241  1.289459
