36
Energy: -108380.2146 eV PBE+vdW (tier 2 basis)
C    -0.127680  -0.358436  0.076538
C    -0.419283  0.157216  1.447697
O    0.465455  0.799576  2.098721
H    -0.928027  -0.093160  -0.624975
H    -0.045273  -1.456565  0.075230
H    0.820826  0.059739  -0.271861
N    -1.618427  -0.060121  2.037104
C    -2.339145  -1.341361  2.027091
C    -1.375326  -2.426140  2.572934
O    -0.308300  -2.092797  3.191303
H    -1.773684  0.510708  2.866987
H    -3.108135  -1.218100  2.807747
C    -3.093882  -1.686880  0.723425
C    -3.918467  -0.511860  0.181063
C    -5.004104  -0.011297  1.135703
N    -5.555886  1.246776  0.651897
C    -6.518593  1.891362  1.472248
N    -7.674416  1.147626  1.639980
N    -6.198085  3.026287  1.977470
H    -3.778629  -2.521876  0.946086
H    -2.399220  -2.050705  -0.045567
H    -3.243326  0.323864  -0.064736
H    -4.377726  -0.817052  -0.768637
H    -4.589353  0.111532  2.165069
H    -5.806714  -0.756674  1.221139
H    -4.820895  1.938665  0.498797
H    -8.426363  1.609159  2.140546
H    -7.995104  0.634423  0.823603
H    -6.986742  3.490110  2.438166
N    -1.710931  -3.693995  2.427254
C    -0.958257  -4.826777  2.974671
H    -2.559768  -3.897875  1.905615
H    -1.524144  -5.741484  2.781226
H    -0.825790  -4.707700  4.055992
H    0.023411  -4.904597  2.491988
Sr    1.260953  -0.514611  3.828075
