36
Energy: -108381.306889 eV PBE+vdW (tier 2 basis)
C    -0.054565  -2.268489  0.561151
C    -0.168517  -1.305883  1.696975
O    0.830292  -0.599403  2.048048
H    -0.974777  -2.832756  0.378869
H    0.767416  -2.969768  0.755821
H    0.209634  -1.710745  -0.348308
N    -1.340227  -1.191327  2.330443
C    -1.644978  -0.187717  3.361699
C    -0.952155  -0.558802  4.692581
O    0.172661  0.007579  4.943024
H    -2.122803  -1.747883  1.992389
H    -1.107804  0.722876  3.059996
C    -3.156345  0.165205  3.436476
C    -4.149268  -0.745582  2.698274
C    -5.623213  -0.377931  3.024230
N    -6.244852  -1.148904  4.086917
C    -6.178103  -0.806900  5.421762
N    -7.230433  -1.278580  6.172432
N    -5.135733  -0.166284  5.869313
H    -3.261202  1.175979  3.020935
H    -3.481248  0.240418  4.487109
H    -4.023686  -1.809484  2.955654
H    -4.012832  -0.652068  1.608709
H    -6.226520  -0.542889  2.123759
H    -5.686934  0.694764  3.262139
H    -6.996182  -1.770031  3.814933
H    -7.222577  -1.078086  7.164891
H    -8.156241  -1.320175  5.760177
H    -5.280934  0.141922  6.832877
N    -1.442865  -1.426712  5.556103
C    -2.679875  -2.210575  5.505925
H    -0.874120  -1.529886  6.396529
H    -2.616159  -2.974504  6.285621
H    -2.775690  -2.717763  4.540212
H    -3.560258  -1.562296  5.691738
Sr    1.982956  0.508545  3.667339
