36
Energy: -108382.60992 eV PBE+vdW (tier 2 basis)
C    -0.474641  1.889488  0.284193
C    -0.213148  0.993270  1.460813
O    0.967826  0.746159  1.812545
H    -0.225930  2.919402  0.580388
H    -1.513450  1.876919  -0.064116
H    0.197905  1.619504  -0.536588
N    -1.298142  0.503851  2.093875
C    -1.530465  -0.131036  3.410328
C    -0.300584  -0.387376  4.295455
O    0.668393  -1.115597  3.953880
H    -2.177866  0.787832  1.669830
H    -2.142222  0.608256  3.951447
C    -2.435283  -1.394729  3.310633
C    -1.831148  -2.753950  2.903796
C    -2.067066  -3.252660  1.470491
N    -1.497133  -2.451160  0.380264
C    -0.172008  -2.247935  0.183319
N    0.183347  -1.389920  -0.832696
N    0.795206  -2.725113  0.948645
H    -3.280910  -1.133015  2.654574
H    -2.877965  -1.503928  4.310607
H    -2.294561  -3.521031  3.539937
H    -0.766016  -2.783130  3.160404
H    -3.145287  -3.298032  1.271803
H    -1.706244  -4.292250  1.397701
H    -2.109366  -2.293106  -0.413586
H    1.039314  -1.636718  -1.320013
H    -0.544920  -1.047007  -1.450956
H    0.455013  -3.513277  1.504229
N    -0.381362  0.120378  5.524324
C    0.603461  -0.125155  6.576790
H    -1.168956  0.720545  5.749530
H    0.129177  0.047484  7.547013
H    1.460179  0.553950  6.474338
H    0.952272  -1.161045  6.521668
Sr    2.235285  -1.170182  2.201348
