36
Energy: -108382.885265 eV PBE+vdW (tier 2 basis)
C    -2.786226  0.990209  1.243164
C    -1.930474  0.483382  2.364270
O    -0.682319  0.424124  2.246989
H    -3.859904  0.955017  1.454725
H    -2.577318  0.401885  0.340275
H    -2.500586  2.027305  1.020434
N    -2.556413  0.095864  3.495794
C    -1.957165  -0.423697  4.741271
C    -0.936861  0.601724  5.303497
O    0.285618  0.529977  5.006957
H    -3.569323  0.160463  3.488501
H    -2.804592  -0.461914  5.434085
C    -1.325579  -1.841322  4.683554
C    -1.656048  -2.717177  3.474086
C    -0.842029  -4.030009  3.443747
N    0.586085  -3.868937  3.761800
C    1.403192  -2.956427  3.200727
N    2.542419  -2.555509  3.933294
N    1.198089  -2.263460  2.107873
H    -1.617359  -2.360116  5.608170
H    -0.238311  -1.723648  4.757693
H    -1.489414  -2.154788  2.546757
H    -2.716535  -3.005372  3.466311
H    -0.966068  -4.520087  2.466708
H    -1.230152  -4.730919  4.192378
H    0.965788  -4.472400  4.483396
H    3.407432  -2.664388  3.402774
H    2.640234  -2.955063  4.865389
H    0.468098  -2.649520  1.508607
N    -1.385160  1.564009  6.107041
C    -2.755583  1.807378  6.566113
H    -0.664072  2.202103  6.440809
H    -3.433581  1.989522  5.723410
H    -2.746625  2.705478  7.189722
H    -3.128787  0.976663  7.178261
Sr    1.509456  0.028219  3.001236
