36
Energy: -108381.314112 eV PBE+vdW (tier 2 basis)
C    1.345332  0.247108  0.817052
C    0.403430  1.028725  1.677075
O    0.681189  2.245852  1.979093
H    2.052690  -0.310950  1.449815
H    1.923117  0.939560  0.196856
H    0.800068  -0.473726  0.183271
N    -0.679787  0.398222  2.119508
C    -1.883998  0.854592  2.817958
C    -1.784405  2.094389  3.694521
O    -0.773270  2.363569  4.420211
H    -0.802430  -0.603379  1.789431
H    -2.637741  1.061706  2.041781
C    -2.444763  -0.284949  3.729486
C    -3.150612  -1.458005  3.018540
C    -2.264415  -2.613764  2.537393
N    -1.346350  -2.243791  1.451827
C    -1.762553  -2.089079  0.091291
N    -3.084761  -2.364518  -0.167619
N    -0.871841  -1.612596  -0.701466
H    -3.175774  0.176046  4.408601
H    -1.624596  -0.639436  4.372122
H    -3.760659  -1.080141  2.183771
H    -3.863798  -1.887533  3.736610
H    -2.906049  -3.472044  2.275719
H    -1.637188  -2.964619  3.368461
H    -0.470971  -2.763137  1.468055
H    -3.536901  -3.118393  0.340543
H    -3.368724  -2.308696  -1.140198
H    -1.172003  -1.595010  -1.678588
N    -2.862535  2.874680  3.771216
C    -4.146391  2.749442  3.072486
H    -2.803246  3.598121  4.485775
H    -4.002483  2.708258  1.986557
H    -4.741074  3.637760  3.302672
H    -4.703087  1.864950  3.407189
Sr    1.229220  3.315317  3.857045
