36
Energy: -108380.667583 eV PBE+vdW (tier 2 basis)
C    0.203017  0.633091  0.410886
C    -0.020750  0.224435  1.828174
O    0.884980  0.392848  2.704943
H    -0.638133  0.393171  -0.247370
H    1.112897  0.152806  0.027838
H    0.379479  1.718117  0.383040
N    -1.200542  -0.310941  2.168165
C    -1.622150  -0.601075  3.548507
C    -0.896487  -1.859118  4.079284
O    0.159061  -1.673805  4.776812
H    -1.910210  -0.385472  1.442449
H    -1.216330  0.207785  4.176119
C    -3.152435  -0.574317  3.701454
C    -3.768040  0.829809  3.785423
C    -3.748889  1.658282  2.482169
N    -4.663366  2.790534  2.494625
C    -6.045113  2.566233  2.702782
N    -6.538864  1.500291  1.944647
N    -6.818457  3.209048  3.492788
H    -3.400471  -1.121424  4.623147
H    -3.629060  -1.132504  2.880862
H    -3.301970  1.401300  4.604368
H    -4.821080  0.693484  4.070316
H    -4.015110  1.002289  1.636659
H    -2.744480  2.058956  2.272716
H    -4.329938  3.582729  3.037187
H    -7.546397  1.422787  2.069117
H    -6.296711  1.546231  0.956492
H    -6.316727  3.868758  4.093563
N    -1.303161  -3.096062  3.844130
C    -2.432997  -3.596615  3.054423
H    -0.731411  -3.806200  4.303072
H    -2.201859  -4.624015  2.757652
H    -3.357116  -3.600861  3.644838
H    -2.572728  -3.003586  2.146370
Sr    1.939151  -0.245582  4.619586
