36
Energy: -108381.955598 eV PBE+vdW (tier 2 basis)
C    -0.095750  0.870924  -0.534158
C    -0.054768  0.558408  0.930656
O    1.068831  0.289885  1.494261
H    0.536627  1.744970  -0.740875
H    -1.108122  1.077213  -0.895065
H    0.314463  0.022913  -1.098930
N    -1.188956  0.572100  1.597156
C    -1.471924  0.271482  2.997178
C    -3.005457  -0.039382  2.943838
O    -3.627287  0.297115  1.932085
H    -2.100643  0.714853  1.109719
H    -0.908082  -0.622059  3.302670
C    -1.180753  1.479862  3.945698
C    -0.197957  1.240551  5.099706
C    1.235461  0.961536  4.648963
N    2.149753  0.878193  5.769420
C    3.444540  0.496744  5.648795
N    4.191966  0.498115  6.772953
N    3.923258  0.137505  4.454471
H    -2.128780  1.824802  4.378867
H    -0.827584  2.316274  3.326013
H    -0.538214  0.414446  5.740339
H    -0.203065  2.145649  5.726858
H    1.550139  1.760754  3.947912
H    1.250112  -0.003208  4.112030
H    1.842128  1.268052  6.653628
H    5.172438  0.250781  6.748659
H    3.802944  0.714095  7.682559
H    4.894111  -0.166348  4.574906
N    -3.592540  -0.630468  3.999289
C    -2.999177  -1.082249  5.248900
H    -4.598891  -0.739348  3.890893
H    -1.995439  -1.492848  5.084186
H    -3.616158  -1.889204  5.656944
H    -2.947883  -0.278915  5.998166
Sr    3.208189  -0.001132  2.134929
