36
Energy: -108382.069194 eV PBE+vdW (tier 2 basis)
C    0.662262  0.022526  -0.498944
C    0.574457  0.251583  0.982436
O    1.579750  0.428224  1.685785
H    -0.309170  -0.011438  -1.004368
H    1.184688  -0.928617  -0.671417
H    1.280992  0.809936  -0.945579
N    -0.684717  0.257987  1.532063
C    -0.999483  0.240376  2.963320
C    -0.599076  1.495610  3.756857
O    -1.436854  1.960114  4.610105
H    -1.467064  0.177949  0.893114
H    -2.095165  0.238785  3.012775
C    -0.451587  -1.030328  3.677069
C    -1.234584  -2.321122  3.384655
C    -2.382476  -2.650387  4.351106
N    -3.438404  -1.626167  4.400864
C    -3.636141  -0.658358  5.307818
N    -2.751811  -0.530479  6.422522
N    -4.544383  0.291260  5.277685
H    -0.403977  -0.839915  4.761633
H    0.594474  -1.150698  3.368461
H    -0.547109  -3.177792  3.426247
H    -1.612065  -2.307430  2.350045
H    -2.004182  -2.816527  5.369155
H    -2.860138  -3.593878  4.055543
H    -4.068152  -1.607507  3.601666
H    -3.229549  -0.816590  7.281659
H    -1.889070  -1.067795  6.341584
H    -5.269714  0.166343  4.569050
N    0.594851  2.006299  3.580876
C    1.112128  3.174424  4.284512
H    1.192709  1.480404  2.889761
H    0.392928  4.000755  4.241967
H    2.041423  3.484378  3.799376
H    1.326078  2.935629  5.335004
Sr    -3.127374  2.124052  6.100137
