36
Energy: -108380.313797 eV PBE+vdW (tier 2 basis)
C    -0.903347  -1.006718  -0.660755
C    -0.636180  -0.250408  0.588268
O    0.475402  0.365845  0.734061
H    -1.812647  -0.629864  -1.188754
H    -1.085047  -2.071978  -0.467220
H    -0.042755  -0.905002  -1.328233
N    -1.535315  -0.145088  1.602784
C    -2.321448  -1.228925  2.204818
C    -1.326047  -2.180306  2.922273
O    -0.072824  -2.101887  2.677284
H    -1.261923  0.576050  2.269977
H    -2.925401  -0.740035  2.985175
C    -3.303833  -1.950306  1.254269
C    -4.233477  -0.966221  0.537846
C    -4.940502  -1.578761  -0.690388
N    -5.465181  -0.567335  -1.597368
C    -4.610117  0.361002  -2.199796
N    -3.390261  -0.206043  -2.649531
N    -4.799618  1.611939  -2.385157
H    -3.889034  -2.664693  1.847531
H    -2.751275  -2.560875  0.527881
H    -3.655359  -0.099886  0.187217
H    -4.978970  -0.568051  1.242972
H    -5.773103  -2.227185  -0.387767
H    -4.234721  -2.223123  -1.235544
H    -6.347957  -0.155983  -1.307943
H    -2.931113  0.488924  -3.239435
H    -3.535986  -1.063553  -3.184760
H    -5.656649  1.956812  -1.944368
N    -1.762241  -3.065498  3.804248
C    -3.119208  -3.292671  4.310613
H    -1.034947  -3.667334  4.191160
H    -3.604054  -4.114957  3.769713
H    -3.727122  -2.387204  4.227827
H    -3.047263  -3.562461  5.369398
Sr    1.823715  -0.912479  2.077088
