36
Energy: -108381.353647 eV PBE+vdW (tier 2 basis)
C    -0.203204  1.402679  0.595813
C    0.260839  0.448754  1.653039
O    1.503176  0.230937  1.813445
H    -0.060068  2.443108  0.923761
H    -1.252141  1.263459  0.318306
H    0.429648  1.255724  -0.288055
N    -0.637795  -0.189773  2.432795
C    -1.755698  0.527504  3.068708
C    -1.180195  1.197202  4.362807
O    0.082414  1.579440  4.270757
H    -0.213609  -0.908279  3.021838
H    -2.014542  1.355488  2.391111
C    -2.991876  -0.369966  3.249286
C    -4.315942  0.394504  3.064656
C    -5.573150  -0.327060  3.618418
N    -6.235519  0.427299  4.699761
C    -5.558363  0.910603  5.750246
N    -5.967717  2.016789  6.383676
N    -4.433382  0.299826  6.183780
H    -2.942498  -0.849149  4.235912
H    -2.934131  -1.177314  2.506791
H    -4.463357  0.590638  1.993555
H    -4.242066  1.381638  3.541330
H    -5.332139  -1.344553  3.962613
H    -6.331676  -0.452342  2.838952
H    -7.190338  0.737406  4.546219
H    -5.641811  2.194184  7.327103
H    -6.694691  2.615875  6.010052
H    -4.355933  -0.667693  5.883035
N    -1.924899  1.356873  5.401156
C    -1.325425  2.046745  6.544364
H    -3.515759  0.802473  6.034960
H    -0.474672  1.483333  6.958470
H    -2.071855  2.151806  7.339606
H    -0.964159  3.049779  6.273510
Sr    2.211957  1.351798  3.740225
