36
Energy: -108381.858926 eV PBE+vdW (tier 2 basis)
C    1.099566  0.885257  1.943113
C    0.421616  -0.405180  1.603283
O    1.022813  -1.512754  1.768292
H    0.923802  1.136173  3.000953
H    0.744603  1.722094  1.332647
H    2.178950  0.759309  1.807310
N    -0.844694  -0.397091  1.133614
C    -1.889259  0.446008  1.722805
C    -2.153709  0.008756  3.198485
O    -1.455496  -1.013321  3.656324
H    -1.171100  -1.320452  0.845029
H    -1.495312  1.470483  1.782104
C    -3.155753  0.432510  0.845177
C    -3.225396  1.594840  -0.150038
C    -3.576843  2.942125  0.492357
N    -4.973642  3.027096  0.938340
C    -5.410102  3.239698  2.193590
N    -6.624519  3.797977  2.358119
N    -4.669961  2.916016  3.255312
H    -4.035346  0.445979  1.501339
H    -3.205674  -0.524223  0.303863
H    -3.965583  1.368522  -0.931339
H    -2.265857  1.706430  -0.677840
H    -3.412006  3.751217  -0.233056
H    -2.941344  3.164693  1.359739
H    -5.671810  3.118312  0.206384
H    -7.107136  3.747755  3.246638
H    -7.070261  4.327055  1.618420
H    -4.962451  3.280695  4.155131
N    -3.015840  0.716380  3.835195
C    -3.333766  0.406810  5.222969
H    -3.978909  2.111324  3.292442
H    -4.422383  0.306763  5.334162
H    -3.014662  1.238168  5.868673
H    -2.860690  -0.514965  5.584906
Sr    0.112224  -2.564104  3.653823
