36
Energy: -108381.939566 eV PBE+vdW (tier 2 basis)
C    0.723235  -1.046559  0.960843
C    0.375349  -0.520399  2.315123
O    1.262508  -0.568547  3.247922
H    1.065938  -2.086799  1.038120
H    1.573215  -0.463440  0.578575
H    -0.095032  -0.989477  0.239039
N    -0.804030  -0.008033  2.607660
C    -2.056841  0.096830  1.868119
C    -2.610344  1.478670  2.329787
O    -2.265810  1.885365  3.446148
H    -0.918506  0.505094  3.500495
H    -1.872621  0.060617  0.787650
C    -3.058298  -0.998581  2.315486
C    -2.581612  -2.467279  2.247209
C    -2.380110  -3.155814  3.603307
N    -1.179247  -2.681405  4.298529
C    -0.875045  -2.864405  5.605870
N    -1.781080  -3.478525  6.390865
N    0.296959  -2.407223  6.072853
H    -3.956290  -0.875133  1.695885
H    -3.369817  -0.757473  3.343104
H    -1.667884  -2.575438  1.641509
H    -3.335963  -3.060522  1.714478
H    -2.325154  -4.246247  3.450212
H    -3.256130  -2.948543  4.236137
H    -0.383522  -2.461260  3.712751
H    -1.645722  -3.538428  7.391774
H    -2.598054  -3.940351  6.012552
H    0.423901  -2.743927  7.031379
N    -3.463559  2.095495  1.501449
C    -4.130783  3.356533  1.820945
H    -3.648369  1.677951  0.594947
H    -3.829956  4.136321  1.111032
H    -3.838286  3.654024  2.831227
H    -5.219054  3.229743  1.778106
Sr    2.043820  -0.928584  5.326714
