36
Energy: -108382.894595 eV PBE+vdW (tier 2 basis)
C    0.874890  0.733693  1.571370
C    0.084602  0.133814  2.693435
O    0.642324  -0.191525  3.773102
H    1.677216  0.039466  1.288797
H    1.360031  1.651157  1.931072
H    0.276456  0.969638  0.685412
N    -1.240910  -0.035229  2.499705
C    -2.226543  -0.579030  3.455440
C    -2.055985  0.065843  4.847650
O    -1.477988  -0.545268  5.788021
H    -1.601532  0.234455  1.589419
H    -3.192772  -0.222027  3.075741
C    -2.317102  -2.125792  3.522813
C    -1.039648  -2.924126  3.246035
C    -1.097315  -4.382791  3.708690
N    -1.412687  -4.587713  5.130523
C    -0.466429  -4.668521  6.113601
N    -0.691382  -5.586392  7.082577
N    0.580180  -3.847923  6.111066
H    -3.084272  -2.447332  2.804982
H    -2.703493  -2.380602  4.520006
H    -0.151853  -2.455270  3.690871
H    -0.819074  -2.929990  2.168344
H    -0.139202  -4.868025  3.476603
H    -1.871913  -4.917022  3.143139
H    -2.266999  -5.102758  5.312872
H    -0.149589  -5.581294  7.937814
H    -1.297741  -6.384271  6.932461
H    1.305880  -4.236568  6.721407
N    -2.571671  1.277517  5.045376
C    -3.307126  2.122318  4.100601
H    -2.457905  1.632769  5.993589
H    -3.549757  3.061160  4.605640
H    -4.249805  1.651910  3.791999
H    -2.699394  2.358074  3.219097
Sr    0.714470  -1.387146  5.828937
