36
Energy: -108380.918556 eV PBE+vdW (tier 2 basis)
C    0.239228  0.434492  0.343396
C    -0.014502  0.430320  1.816148
O    0.952632  0.395074  2.631640
H    -0.672136  0.487563  -0.260765
H    0.791397  -0.478186  0.079055
H    0.889097  1.283536  0.092663
N    -1.293740  0.461690  2.234602
C    -1.800450  0.360083  3.620923
C    -1.433246  1.624775  4.423587
O    -0.288872  1.734784  4.961080
H    -1.997757  0.476281  1.502142
H    -2.891748  0.334892  3.519039
C    -1.367224  -0.938490  4.326086
C    -1.719993  -1.005967  5.821019
C    -0.532075  -1.504236  6.666560
N    -0.738559  -1.500870  8.089427
C    -1.492160  -2.572734  8.658582
N    -0.918310  -3.814309  8.429487
N    -2.584930  -2.262154  9.242925
H    -0.281262  -1.087690  4.189054
H    -1.816364  -1.775073  3.775217
H    -2.570969  -1.677724  5.992195
H    -2.033364  -0.024153  6.208307
H    0.361538  -0.850686  6.435938
H    -0.245679  -2.518268  6.352782
H    -1.168572  -0.638658  8.427297
H    -1.405408  -4.598992  8.851039
H    0.089060  -3.866816  8.557627
H    -3.006755  -3.042273  9.754612
N    -2.325323  2.595698  4.556255
C    -3.695345  2.665525  4.032288
H    -2.000595  3.392543  5.104652
H    -4.323220  1.870521  4.452946
H    -4.119760  3.626765  4.334385
H    -3.706097  2.620359  2.936866
Sr    1.747732  0.696725  4.760733
