36
Energy: -108382.022416 eV PBE+vdW (tier 2 basis)
C    -0.190674  0.108729  -0.412508
C    -0.000369  -0.302747  1.010806
O    1.130957  -0.730642  1.406844
H    0.403252  -0.553110  -1.052472
H    0.187269  1.132668  -0.549673
H    -1.236955  0.080119  -0.733180
N    -1.012154  -0.238307  1.884589
C    -2.183832  0.636029  1.790584
C    -1.699752  2.083012  1.533390
O    -0.588982  2.444634  1.970473
H    -0.793474  -0.571382  2.824768
H    -2.832589  0.284999  0.976761
C    -3.002238  0.588086  3.107799
C    -2.443883  1.383572  4.310436
C    -1.666600  0.624071  5.391777
N    -0.546197  -0.261870  4.966669
C    0.739957  0.091338  4.704582
N    1.018238  1.300450  4.022837
N    1.790763  -0.673951  4.880318
H    -3.175199  -0.468267  3.365516
H    -3.994799  0.987537  2.865656
H    -3.295280  1.822519  4.849681
H    -1.861690  2.246676  3.963923
H    -2.350436  -0.048254  5.924157
H    -1.290585  1.341834  6.134146
H    -0.628692  -1.209026  5.330578
H    0.264915  1.728763  3.446403
H    1.475356  1.992227  4.618769
H    1.632736  -1.484069  5.483246
N    -2.518901  2.919199  0.881450
C    -3.827455  2.639625  0.288032
H    -2.167892  3.872740  0.814782
H    -4.121854  3.507532  -0.308541
H    -4.599060  2.477016  1.051671
H    -3.788595  1.773172  -0.383788
Sr    2.898072  -0.164455  2.757185
