36
Energy: -108380.964736 eV PBE+vdW (tier 2 basis)
C    0.271782  -0.538745  0.276560
C    0.012866  -0.282202  1.723743
O    0.976024  -0.115866  2.536197
H    0.810607  0.323648  -0.141518
H    -0.640528  -0.704054  -0.305533
H    0.932624  -1.409028  0.170665
N    -1.255504  -0.217486  2.153484
C    -1.662575  0.186854  3.509444
C    -1.404424  -0.961523  4.517686
O    -0.290588  -0.933476  5.147349
H    -1.993030  -0.330289  1.461504
H    -0.950843  0.962978  3.829605
C    -3.058684  0.819608  3.508019
C    -3.520316  1.201978  4.917247
C    -5.015981  1.583555  4.992464
N    -5.552991  1.464606  6.339998
C    -5.580692  0.215860  6.968396
N    -6.158921  -0.796301  6.174903
N    -5.070515  0.092689  8.139652
H    -3.790634  0.140636  3.046939
H    -3.012612  1.707852  2.859847
H    -2.905776  2.026486  5.310226
H    -3.369461  0.357437  5.608066
H    -5.592686  0.935521  4.316991
H    -5.176927  2.612515  4.645603
H    -5.195878  2.158030  6.995066
H    -6.381092  -1.628233  6.716496
H    -6.983050  -0.485960  5.659586
H    -5.307248  -0.800937  8.580989
N    -2.240043  -1.961191  4.739120
C    -3.563479  -2.258956  4.180694
H    -1.912243  -2.601919  5.463122
H    -3.730028  -3.334974  4.290583
H    -3.601778  -2.020662  3.114402
H    -4.357072  -1.721100  4.727029
Sr    1.849566  -0.339969  4.629781
