36
Energy: -108380.614137 eV PBE+vdW (tier 2 basis)
C    -0.129025  0.446847  0.150098
C    -0.132126  0.285100  1.633542
O    0.927517  0.478607  2.310480
H    0.151682  1.482445  -0.089440
H    -1.096039  0.223757  -0.311994
H    0.640938  -0.201424  -0.288675
N    -1.274245  -0.057619  2.241812
C    -1.474727  -0.096642  3.696149
C    -0.789244  -1.342345  4.310149
O    0.394585  -1.182533  4.766062
H    -2.108345  -0.164901  1.666719
H    -0.871212  0.724420  4.108169
C    -2.954654  0.170477  4.093941
C    -4.025988  0.000256  3.009257
C    -5.439759  0.018700  3.606763
N    -6.431014  -0.145219  2.552709
C    -7.795256  0.092756  2.866483
N    -8.028849  1.365882  3.372815
N    -8.615649  -0.871849  2.679614
H    -3.001386  1.203378  4.462697
H    -3.198151  -0.455227  4.964449
H    -3.908868  -0.950309  2.460116
H    -3.964109  0.808639  2.263607
H    -5.620452  0.974307  4.116327
H    -5.515658  -0.769232  4.385351
H    -6.409813  -1.082702  2.148498
H    -7.532676  2.122358  2.909333
H    -9.005304  1.586552  3.538431
H    -9.593799  -0.589424  2.786819
N    -1.347573  -2.539351  4.389745
C    -2.643131  -3.024753  3.905461
H    -0.760973  -3.227408  4.862841
H    -2.606698  -4.117691  3.899780
H    -2.830706  -2.683982  2.883259
H    -3.461909  -2.706849  4.561932
Sr    2.240553  -0.002762  4.102005
