36
Energy: -108381.133334 eV PBE+vdW (tier 2 basis)
C    -0.754480  1.287135  0.131964
C    -0.638520  1.393544  1.616254
O    0.151906  2.239234  2.145550
H    -1.130986  2.244813  -0.256080
H    -1.424870  0.485765  -0.194780
H    0.239651  1.133535  -0.307072
N    -1.391903  0.593488  2.378426
C    -1.575456  0.693826  3.841127
C    -0.359534  0.084533  4.573594
O    0.688892  0.790945  4.729784
H    -2.030252  -0.037618  1.896637
H    -1.559109  1.765519  4.098188
C    -2.945753  0.113994  4.197632
C    -3.440153  0.424119  5.615973
C    -4.839938  -0.178201  5.895112
N    -5.876860  0.228513  4.958925
C    -5.961467  -0.257574  3.649432
N    -5.648550  -1.616615  3.528229
N    -6.256367  0.413433  2.591804
H    -2.981652  -0.972311  3.997943
H    -3.660449  0.542203  3.478029
H    -3.488171  1.517367  5.749247
H    -2.743665  0.047082  6.383580
H    -5.153349  0.117088  6.905033
H    -4.771526  -1.273724  5.903088
H    -6.181708  1.193149  5.046689
H    -5.901656  -1.942452  2.597489
H    -6.071451  -2.205667  4.243363
H    -6.373601  1.411726  2.787416
N    -0.442788  -1.156507  5.011969
C    0.605691  -1.892597  5.716812
H    -1.327884  -1.636130  4.857376
H    0.187356  -2.329475  6.630614
H    1.416511  -1.208469  5.975624
H    0.989804  -2.699011  5.079520
Sr    1.663517  2.632748  3.781097
