36
Energy: -108381.46062 eV PBE+vdW (tier 2 basis)
C    -0.969859  0.474879  0.429953
C    -0.374539  0.129919  1.758554
O    0.860180  -0.152542  1.844128
H    -2.025843  0.759209  0.480606
H    -0.868417  -0.397831  -0.231190
H    -0.397186  1.290347  -0.029857
N    -1.184514  0.127403  2.825906
C    -0.941628  -0.333949  4.211049
C    0.004209  0.581297  5.008342
O    1.219858  0.751229  4.648667
H    -2.147172  0.387448  2.630599
H    -1.925681  -0.243237  4.688875
C    -0.518443  -1.816200  4.304074
C    -0.594502  -2.361575  5.738439
C    -2.037618  -2.545428  6.291445
N    -2.194743  -2.168169  7.692235
C    -2.191088  -0.848053  8.119118
N    -2.891879  0.052551  7.255979
N    -1.653074  -0.339387  9.163362
H    0.500294  -1.945907  3.908569
H    -1.174556  -2.394252  3.636258
H    -0.039452  -1.699256  6.420350
H    -0.069315  -3.325213  5.769174
H    -2.344998  -3.593592  6.191614
H    -2.761113  -1.975495  5.691827
H    -1.744956  -2.798171  8.351052
H    -3.149107  0.863670  7.823031
H    -3.746992  -0.356857  6.875830
H    -1.103791  -1.013209  9.702914
N    -0.495594  1.106947  6.101822
C    0.241755  1.905902  7.077172
H    -1.471097  0.822804  6.368121
H    -0.096548  1.610058  8.077521
H    0.030474  2.972849  6.926592
H    1.316504  1.732939  6.973096
Sr    2.731105  0.281173  3.044521
