36
Energy: -108381.3658 eV PBE+vdW (tier 2 basis)
C    1.142155  -1.855071  1.230626
C    0.580407  -0.556973  1.713626
O    1.346817  0.434764  1.926648
H    1.601712  -1.688319  0.245686
H    0.392515  -2.648056  1.141667
H    1.943240  -2.186492  1.903381
N    -0.741429  -0.465069  1.899582
C    -1.519460  0.757525  2.171992
C    -1.466972  1.133254  3.672453
O    -0.350576  1.565957  4.130774
H    -1.287304  -1.303832  1.717027
H    -0.982383  1.583218  1.678122
C    -2.909237  0.655812  1.528302
C    -3.732067  -0.625433  1.820877
C    -5.186735  -0.332305  2.218383
N    -5.255772  0.367911  3.516018
C    -5.651960  1.724551  3.703370
N    -5.564728  2.528680  2.570765
N    -5.904209  2.250783  4.842647
H    -2.767521  0.756202  0.443982
H    -3.471595  1.552672  1.831132
H    -3.289574  -1.217842  2.640193
H    -3.738272  -1.281187  0.938531
H    -5.738968  -1.276778  2.302727
H    -5.690399  0.237041  1.426165
H    -5.660299  -0.213916  4.245823
H    -5.892983  3.468217  2.788072
H    -6.016424  2.173763  1.731349
H    -5.869396  1.580252  5.615387
N    -2.543165  1.048800  4.416467
C    -2.619785  1.453407  5.818749
H    -3.447842  0.726872  3.998208
H    -3.281630  2.325145  5.903522
H    -1.624300  1.694604  6.196326
H    -3.045593  0.631071  6.405914
Sr    1.789289  1.985946  3.527203
