36
Energy: -108381.532216 eV PBE+vdW (tier 2 basis)
C    0.111141  0.844836  1.608601
C    -0.626089  0.135940  2.704583
O    -0.070796  -0.009903  3.840817
H    1.104060  1.129216  1.968226
H    -0.425293  1.757093  1.315593
H    0.211806  0.220915  0.710524
N    -1.880566  -0.339782  2.522349
C    -2.307876  -1.114343  1.338236
C    -1.334975  -2.317756  1.118880
O    -0.360237  -2.483225  1.991446
H    -2.273229  -0.683382  3.397768
H    -3.264363  -1.561600  1.643237
C    -2.560037  -0.276100  0.065811
C    -4.005904  0.197577  -0.145660
C    -4.905047  -0.759756  -0.932023
N    -5.421129  -1.931296  -0.191806
C    -5.227801  -3.218246  -0.555884
N    -6.238053  -4.092238  -0.388886
N    -4.054901  -3.608651  -1.054754
H    -2.235273  -0.871174  -0.797465
H    -1.908720  0.602999  0.081515
H    -3.979654  1.125913  -0.734036
H    -4.479312  0.474545  0.809392
H    -4.377835  -1.138896  -1.816699
H    -5.784057  -0.208297  -1.294357
H    -6.259188  -1.762302  0.357332
H    -6.074808  -5.091444  -0.422407
H    -7.203068  -3.784088  -0.360230
H    -4.013127  -4.521032  -1.496713
N    -1.594564  -3.081299  0.117924
C    -0.742227  -4.243815  -0.113227
H    -3.129415  -3.227132  -0.683786
H    -0.888187  -5.013384  0.661164
H    0.324208  -3.976463  -0.122351
H    -0.987630  -4.686809  -1.085000
Sr    0.848584  -2.154892  3.809435
