36
Energy: -108381.405944 eV PBE+vdW (tier 2 basis)
C    -2.129553  -3.123225  1.601474
C    -1.568692  -1.907020  2.259493
O    -0.349382  -1.568831  2.070426
H    -2.191217  -2.950624  0.517124
H    -3.118220  -3.387273  1.993210
H    -1.442964  -3.966004  1.750996
N    -2.364188  -1.181867  3.042775
C    -1.949045  0.085958  3.650140
C    -0.795440  -0.121564  4.654882
O    0.368218  0.288091  4.312296
H    -3.399338  -1.367418  3.023820
H    -1.491448  0.702289  2.858207
C    -3.138499  0.884171  4.216791
C    -4.281062  1.144852  3.207154
C    -5.500976  0.215526  3.316460
N    -5.214658  -1.206343  3.050967
C    -5.315215  -2.179709  4.081632
N    -5.308874  -3.476373  3.583289
N    -5.232268  -1.975245  5.344844
H    -2.725066  1.843722  4.556491
H    -3.536179  0.395587  5.114155
H    -3.895452  1.132124  2.175285
H    -4.651244  2.167016  3.365725
H    -6.262158  0.552470  2.601159
H    -5.960038  0.311799  4.310809
H    -5.596715  -1.522631  2.161458
H    -5.468388  -4.161039  4.319167
H    -5.896336  -3.655634  2.772291
H    -5.226434  -0.982596  5.586914
N    -0.950299  -0.700819  5.834503
C    -2.121270  -1.321698  6.462343
H    -0.096587  -0.703619  6.394195
H    -1.774531  -2.186036  7.038652
H    -2.847896  -1.674171  5.725231
H    -2.605477  -0.618871  7.152411
Sr    1.541819  -0.400482  2.475314
