36
Energy: -108382.032847 eV PBE+vdW (tier 2 basis)
C    -0.825257  -0.336746  0.060382
C    -0.749581  -0.036384  1.528448
O    0.380425  0.476377  1.958755
H    -0.730999  0.593519  -0.516622
H    -1.758501  -0.839454  -0.208666
H    0.016273  -0.977998  -0.232797
N    -1.781250  -0.281675  2.297141
C    -1.629312  0.092425  3.702191
C    -0.531936  -0.707065  4.433193
O    0.447380  -0.053643  4.935083
H    -3.502660  -0.366993  1.640216
H    -1.231797  1.122001  3.765475
C    -2.998712  0.158620  4.418648
C    -3.964981  -1.011686  4.183955
C    -5.425795  -0.589756  4.018162
N    -5.694355  0.435750  2.982155
C    -5.489887  0.336160  1.652324
N    -6.372476  0.928207  0.826881
N    -4.434229  -0.310352  1.150403
H    -3.463554  1.081094  4.039208
H    -2.838854  0.327794  5.492562
H    -3.942464  -1.718716  5.024378
H    -3.667245  -1.586015  3.300922
H    -5.798895  -0.145022  4.949144
H    -6.042140  -1.477619  3.812762
H    -6.389071  1.126398  3.247345
H    -6.140853  1.121895  -0.140037
H    -7.315743  1.142785  1.127931
H    -4.427096  -0.492982  0.153008
N    -0.520015  -2.031432  4.549223
C    -1.398212  -3.046998  3.973265
H    0.263276  -2.377471  5.102662
H    -0.782507  -3.904548  3.680634
H    -1.890137  -2.650094  3.082707
H    -2.143220  -3.387616  4.702289
Sr    1.817172  1.121905  3.495968
