36
Energy: -108382.094422 eV PBE+vdW (tier 2 basis)
C    -1.182868  0.704552  -0.650883
C    -1.138244  0.897214  0.837731
O    -0.309935  0.124749  1.497941
H    -1.909009  1.367184  -1.129606
H    -1.430182  -0.340567  -0.882066
H    -0.190136  0.895503  -1.080747
N    -1.921740  1.796553  1.371540
C    -1.998307  1.992448  2.828798
C    -0.658188  2.471834  3.409750
O    0.179375  1.680145  3.948911
H    -3.387149  2.511591  0.828786
H    -2.682062  2.845100  2.949023
C    -2.617883  0.832936  3.651146
C    -3.532448  -0.171406  2.924286
C    -4.583055  0.330161  1.917456
N    -5.324013  1.538826  2.298105
C    -5.350751  2.674557  1.572305
N    -6.400800  3.505771  1.713844
N    -4.342937  2.982245  0.755521
H    -3.168795  1.293274  4.483642
H    -1.825513  0.246006  4.139671
H    -4.037773  -0.754792  3.707620
H    -2.922556  -0.896269  2.365283
H    -5.315099  -0.473397  1.752439
H    -4.119641  0.534293  0.949030
H    -6.046482  1.439905  3.004665
H    -6.378820  4.443628  1.333250
H    -7.290386  3.175969  2.068493
H    -4.474586  3.718183  0.071657
N    -0.357247  3.764439  3.322748
C    -1.153695  4.837701  2.726919
H    0.539583  4.022021  3.731581
H    -1.567884  4.519442  1.764610
H    -0.493523  5.692039  2.550886
H    -1.959102  5.158241  3.400997
Sr    1.024554  -0.309573  3.172926
