36
Energy: -108382.078618 eV PBE+vdW (tier 2 basis)
C    -0.705954  -0.690753  -0.493707
C    -0.404878  -0.618982  0.970819
O    0.793647  -0.822143  1.388803
H    -0.087184  0.038167  -1.034038
H    -1.758959  -0.494736  -0.718201
H    -0.444367  -1.689749  -0.868154
N    -1.388186  -0.349172  1.801724
C    -1.388931  -0.341159  3.261248
C    -2.862580  -0.754386  3.591565
O    -3.711311  -0.616688  2.707712
H    -2.372504  -0.297659  1.470666
H    -0.676698  -1.092752  3.632230
C    -1.112758  1.063372  3.844850
C    0.284734  1.666578  3.642186
C    1.391270  0.995054  4.470387
N    2.591450  1.803861  4.643312
C    3.565970  2.029185  3.728740
N    4.388367  3.073443  3.973532
N    3.710111  1.242261  2.659925
H    -1.336783  1.028923  4.922423
H    -1.855663  1.747760  3.410637
H    0.232155  2.717604  3.961914
H    0.560418  1.691978  2.578298
H    1.663071  0.002129  4.068126
H    1.021901  0.784366  5.483806
H    2.614181  2.376907  5.479195
H    5.250646  3.190162  3.457049
H    4.220523  3.730047  4.726133
H    4.424044  1.660150  2.055352
N    -3.103419  -1.198553  4.835228
C    -4.437532  -1.563528  5.311177
H    -2.325746  -1.303613  5.477546
H    -4.727084  -0.930021  6.158206
H    -4.455873  -2.615059  5.621246
H    -5.145133  -1.416134  4.491093
Sr    2.989853  -0.879525  1.776297
