36
Energy: -108382.389325 eV PBE+vdW (tier 2 basis)
C    -1.036394  -0.743878  3.816527
C    -0.317990  -0.495705  2.514366
O    0.832185  0.084171  2.567533
H    -0.869008  0.115194  4.475689
H    -0.604851  -1.619279  4.322583
H    -2.113571  -0.912795  3.702103
N    -0.747832  -0.860359  1.306657
C    -1.717653  -1.905142  1.085335
C    -0.912903  -3.154967  0.638147
O    0.289642  -3.017847  0.276678
H    -7.916927  0.836451  -0.384387
H    -2.276532  -2.171033  2.000826
C    -2.707535  -1.496495  -0.036557
C    -3.478980  -0.199323  0.248894
C    -4.599047  -0.349624  1.287726
N    -5.317716  0.902797  1.556757
C    -6.462970  1.304778  0.988841
N    -7.125649  2.351663  1.502361
N    -6.965905  0.669152  -0.078088
H    -3.406334  -2.319607  -0.248060
H    -2.122337  -1.347551  -0.955501
H    -3.906209  0.168791  -0.696476
H    -2.769949  0.571740  0.585534
H    -4.199712  -0.686164  2.254043
H    -5.335565  -1.107590  0.983758
H    -4.890100  1.547851  2.213489
H    -7.861965  2.815219  0.983324
H    -6.929801  2.697760  2.433868
H    -6.401669  0.044944  -0.638685
N    -1.471433  -4.366814  0.627294
C    -2.815671  -4.765867  1.029523
H    -0.855288  -5.102892  0.284254
H    -2.764504  -5.752009  1.503214
H    -3.490216  -4.829827  0.164958
H    -3.226667  -4.061777  1.759619
Sr    1.575724  -1.003344  0.624556
