36
Energy: -108381.023842 eV PBE+vdW (tier 2 basis)
C    -1.772842  0.955358  0.140825
C    -1.292523  0.541104  1.491912
O    -0.036824  0.555560  1.742863
H    -1.423325  1.977493  -0.059618
H    -2.860336  0.924109  0.045131
H    -1.320610  0.308938  -0.623230
N    -2.173607  0.173146  2.424165
C    -1.710250  -0.152099  3.777224
C    -0.938286  -1.494674  3.792605
O    0.319855  -1.423537  4.022981
H    -3.198780  0.100066  2.146893
H    -0.900871  0.562168  3.983823
C    -2.703529  0.084125  4.944334
C    -4.153970  -0.411622  4.872570
C    -5.155966  0.594341  4.245292
N    -6.198564  -0.054910  3.450601
C    -5.832697  -0.773670  2.322790
N    -4.884650  -0.071113  1.499917
N    -6.206392  -1.926907  1.918527
H    -2.709198  1.170905  5.118377
H    -2.207624  -0.341321  5.829511
H    -4.479587  -0.648445  5.894056
H    -4.225882  -1.355715  4.322979
H    -4.631240  1.325236  3.614109
H    -5.649879  1.183820  5.026763
H    -6.917938  -0.517284  4.001222
H    -4.867774  -0.575827  0.610161
H    -5.215618  0.881824  1.322109
H    -6.822293  -2.404360  2.582806
N    -1.469998  -2.683224  3.551926
C    -2.819386  -3.084948  3.149067
H    -0.797017  -3.445002  3.646969
H    -2.727278  -3.922316  2.448935
H    -3.343974  -2.274714  2.639875
H    -3.401894  -3.419697  4.015631
Sr    1.815558  -0.123001  2.858860
