36
Energy: -108383.042085 eV PBE+vdW (tier 2 basis)
C    -0.542954  1.410843  0.739926
C    -1.129449  1.143107  2.087806
O    -1.066066  1.996442  3.012389
H    -1.003669  2.318346  0.327098
H    -0.678111  0.585520  0.033323
H    0.529523  1.619689  0.849808
N    -1.743075  -0.042399  2.298072
C    -2.408221  -0.356956  3.560764
C    -1.379623  -0.815768  4.620746
O    -0.952180  0.033771  5.450992
H    -1.792678  -0.706379  1.530104
H    -2.785276  0.605321  3.931408
C    -3.644746  -1.239881  3.394159
C    -4.411424  -1.436288  4.717314
C    -4.573132  -0.194097  5.607254
N    -5.160048  0.950875  4.902220
C    -4.918118  2.260170  5.212633
N    -5.954251  3.108983  5.012516
N    -3.724537  2.673154  5.634466
H    -3.397097  -2.224559  2.966565
H    -4.288108  -0.743475  2.653499
H    -3.922557  -2.203274  5.335707
H    -5.401491  -1.849057  4.476410
H    -3.614844  0.132249  6.025114
H    -5.202507  -0.466416  6.469272
H    -6.072455  0.774386  4.490641
H    -5.814647  4.111395  5.021661
H    -6.912004  2.784516  4.951963
H    -3.849552  3.617565  6.014570
N    -0.972869  -2.078834  4.608597
C    0.026345  -2.650848  5.511970
H    -1.381499  -2.699887  3.915239
H    -0.387088  -3.539852  6.001735
H    0.289706  -1.905695  6.265914
H    0.922921  -2.936390  4.948116
Sr    -1.276297  2.391017  5.330873
