36
Energy: -108381.946839 eV PBE+vdW (tier 2 basis)
C    -0.413107  -0.422971  0.500341
C    0.042839  0.001827  1.865870
O    1.143781  0.536807  2.063160
H    -0.606843  0.481496  -0.093622
H    -1.320453  -1.037339  0.507326
H    0.397464  -0.966438  0.002017
N    -0.817725  -0.233972  2.909309
C    -0.720998  0.410980  4.221400
C    0.436832  -0.113370  5.112723
O    0.284568  -0.248732  6.380196
H    -1.701815  -0.674390  2.682262
H    -0.451650  1.470324  4.047014
C    -2.080392  0.388254  4.936105
C    -2.773499  -0.988021  5.021596
C    -3.870817  -1.091103  6.105475
N    -3.389073  -1.720560  7.346501
C    -2.633297  -1.127105  8.280751
N    -1.843563  -1.963073  9.121245
N    -2.410255  0.152037  8.465844
H    -2.745023  1.097855  4.423468
H    -1.917495  0.796119  5.939955
H    -2.039890  -1.788805  5.198717
H    -3.249399  -1.223922  4.059011
H    -4.698475  -1.718143  5.757207
H    -4.314260  -0.111383  6.333581
H    -3.580827  -2.712361  7.450513
H    -1.841840  -2.952535  8.871792
H    -2.099813  -1.859968  10.106141
H    -3.058799  0.761881  7.966248
N    1.590167  -0.314478  4.521808
C    2.807824  -0.733709  5.201521
H    1.619517  -0.006503  3.507264
H    3.204770  0.072154  5.835461
H    3.558662  -0.978556  4.445388
H    2.622486  -1.622864  5.816382
Sr    0.024966  -0.003313  8.608463
