36
Energy: -108382.752956 eV PBE+vdW (tier 2 basis)
C    -0.742145  0.089668  -0.031517
C    -0.979637  0.441004  1.402206
O    -0.367920  1.394408  1.952609
H    -0.952888  0.971059  -0.652055
H    -1.350469  -0.750204  -0.382808
H    0.319905  -0.151777  -0.171966
N    -1.879163  -0.291155  2.097537
C    -2.251338  0.024190  3.479165
C    -1.149725  -0.478967  4.448955
O    -0.290432  0.363627  4.835351
H    -2.362753  -1.042153  1.612689
H    -2.160534  1.113357  3.555083
C    -3.714921  -0.329439  3.794760
C    -4.174765  0.127440  5.195478
C    -4.695247  1.578552  5.293872
N    -3.806408  2.602780  4.736196
C    -2.586204  2.958764  5.210644
N    -2.234750  2.534870  6.457384
N    -1.677332  3.617717  4.495704
H    -3.887207  -1.407493  3.691136
H    -4.335694  0.146717  3.019388
H    -3.369086  -0.041439  5.926980
H    -5.002483  -0.516949  5.522007
H    -4.940306  1.818703  6.339889
H    -5.641464  1.671459  4.746616
H    -4.013115  2.912111  3.793460
H    -1.543880  3.106167  6.931130
H    -2.947821  2.156805  7.070835
H    -2.110181  4.060433  3.679731
N    -1.054202  -1.746366  4.844103
C    -1.871235  -2.911789  4.502767
H    -0.266559  -1.914228  5.469655
H    -1.276340  -3.808392  4.700840
H    -2.134522  -2.917877  3.440393
H    -2.780919  -2.960551  5.114499
Sr    0.422510  2.443088  3.926882
