36
Energy: -108381.642538 eV PBE+vdW (tier 2 basis)
C    0.210606  1.022575  1.057163
C    -0.172163  -0.071138  2.003994
O    0.686250  -0.920025  2.399947
H    -0.108245  1.999543  1.439662
H    -0.282725  0.876751  0.083366
H    1.294096  1.019597  0.912908
N    -1.451294  -0.173660  2.430822
C    -2.620496  -0.049347  1.527116
C    -2.343386  -0.867551  0.233835
O    -1.539312  -1.907360  0.389151
H    -1.564081  -0.866687  3.168222
H    -3.412303  -0.597394  2.062699
C    -3.121385  1.386892  1.308653
C    -4.638779  1.422461  1.085365
C    -5.188370  2.766575  0.610872
N    -4.559377  3.354859  -0.595645
C    -4.580135  2.854392  -1.847629
N    -4.662187  3.713955  -2.879763
N    -4.499616  1.541339  -2.070920
H    -2.599071  1.838452  0.454132
H    -2.863554  1.982090  2.195968
H    -5.157082  1.197633  2.030250
H    -4.940280  0.629684  0.389144
H    -5.046527  3.524224  1.391640
H    -6.271446  2.675517  0.441261
H    -4.408965  4.357148  -0.545241
H    -4.423908  3.428542  -3.822007
H    -5.039301  4.646731  -2.761132
H    -4.694149  1.205607  -3.007551
N    -2.916294  -0.501598  -0.859148
C    -2.740006  -1.319209  -2.054551
H    -3.979336  0.879593  -1.439156
H    -3.721718  -1.511460  -2.509840
H    -2.256482  -2.284725  -1.860693
H    -2.139127  -0.769515  -2.794743
Sr    0.208231  -2.924008  1.268659
