36
Energy: -108380.885541 eV PBE+vdW (tier 2 basis)
C    -0.674215  1.293584  0.087709
C    -0.503731  0.858216  1.504075
O    0.595680  1.044966  2.114640
H    -0.570777  2.387729  0.045918
H    -1.643044  1.013443  -0.338096
H    0.130874  0.872282  -0.527907
N    -1.534681  0.277574  2.132451
C    -1.568705  -0.023907  3.572143
C    -0.709360  -1.265494  3.894797
O    0.488312  -1.056399  4.291864
H    -2.410062  0.193799  1.619824
H    -1.023969  0.792544  4.071797
C    -3.009133  0.015677  4.106674
C    -3.549730  1.448638  4.132835
C    -5.008339  1.553721  4.624846
N    -5.531221  2.907419  4.509636
C    -5.654462  3.489529  3.235720
N    -6.421017  2.722078  2.356572
N    -5.046681  4.597749  3.003703
H    -3.011689  -0.414575  5.119852
H    -3.666074  -0.623304  3.497908
H    -3.505733  1.896042  3.126719
H    -2.909303  2.074932  4.775125
H    -5.083513  1.243130  5.676728
H    -5.644543  0.870086  4.045666
H    -5.062737  3.574895  5.120681
H    -7.245328  2.294664  2.774261
H    -6.644301  3.191365  1.484240
H    -5.344608  5.026601  2.122109
N    -1.143928  -2.510718  3.786227
C    -2.432733  -3.031486  3.319311
H    -0.460557  -3.208559  4.082306
H    -2.275878  -4.063833  2.992764
H    -2.802882  -2.458125  2.464679
H    -3.176232  -3.027853  4.125295
Sr    2.111895  0.450258  3.702023
