36
Energy: -108382.461242 eV PBE+vdW (tier 2 basis)
C    0.795966  -0.692277  0.958079
C    0.313538  0.016771  2.185728
O    1.092593  0.796149  2.817553
H    1.074833  0.061729  0.208853
H    0.051177  -1.366336  0.522483
H    1.704796  -1.260724  1.192429
N    -0.948781  -0.184628  2.576893
C    -1.681367  0.515820  3.652615
C    -1.362772  -0.108782  5.030556
O    -0.172728  0.193672  5.502142
H    -1.493706  -0.842963  2.025743
H    -1.287601  1.545192  3.675400
C    -3.163502  0.546627  3.265515
C    -4.046542  1.376792  4.223552
C    -5.339389  0.662148  4.622407
N    -5.008968  -0.599388  5.286887
C    -5.897998  -1.507376  5.669429
N    -7.217949  -1.262899  5.613129
N    -5.475112  -2.709872  6.108336
H    -3.525565  -0.491981  3.218126
H    -3.241793  0.950820  2.246783
H    -4.318465  2.332036  3.758280
H    -3.494415  1.627251  5.140680
H    -5.958086  0.464822  3.730792
H    -5.915229  1.316865  5.296365
H    -3.971705  -0.795606  5.402956
H    -7.898592  -1.984919  5.811695
H    -7.571792  -0.338011  5.409441
H    -6.095466  -3.346545  6.590984
N    -2.242154  -0.849202  5.616730
C    -1.893578  -1.413567  6.918184
H    -4.493454  -2.949201  6.072014
H    -2.810802  -1.611256  7.488649
H    -1.252571  -0.749898  7.514448
H    -1.361535  -2.369479  6.794841
Sr    1.760704  1.102826  4.987652
