36
Energy: -108382.253612 eV PBE+vdW (tier 2 basis)
C    1.240725  -0.902622  1.782543
C    0.330538  -1.101688  2.961136
O    0.668289  -2.055815  3.794680
H    0.879315  -0.115248  1.114989
H    1.342105  -1.842950  1.224270
H    2.246183  -0.633719  2.134513
N    -0.719638  -0.329628  3.073473
C    -1.684942  -0.535986  4.167893
C    -1.042138  -0.523313  5.560243
O    -0.864265  -1.584955  6.243670
H    -1.436698  1.883425  0.533793
H    -2.338128  0.352203  4.149082
C    -2.610544  -1.751158  3.942698
C    -3.723702  -1.518648  2.902490
C    -3.349157  -1.493152  1.412956
N    -2.537217  -0.334280  1.044056
C    -2.590355  0.312745  -0.115987
N    -3.342204  -0.112917  -1.144738
N    -1.870432  1.442428  -0.266126
H    -3.102060  -1.995633  4.895097
H    -2.013543  -2.632601  3.653126
H    -4.266660  -0.593213  3.150005
H    -4.454936  -2.331913  3.013545
H    -4.288520  -1.465763  0.843788
H    -2.823430  -2.423193  1.136636
H    -1.734320  -0.128420  1.705842
H    -3.527368  0.482401  -1.942314
H    -3.752038  -1.036812  -1.152161
H    -1.724317  1.862723  -1.174601
N    -0.673220  0.646298  6.072884
C    -0.799359  1.971919  5.465332
H    -0.298830  0.600597  7.019382
H    -0.602372  1.914677  4.390471
H    -0.052129  2.629867  5.919431
H    -1.795013  2.397902  5.648414
Sr    0.484800  -3.307884  5.581023
