36
Energy: -108382.043095 eV PBE+vdW (tier 2 basis)
C    0.913344  -0.454008  -0.344080
C    0.663426  -0.132840  1.092432
O    1.605410  0.325900  1.830585
H    1.318674  0.428177  -0.856231
H    0.012721  -0.793457  -0.864992
H    1.677480  -1.241720  -0.403046
N    -0.542120  -0.331876  1.599094
C    -0.921511  -0.139804  2.991126
C    -2.331172  -0.799608  3.078801
O    -2.981037  -0.917547  2.041537
H    -1.339275  -0.660388  1.031453
H    -0.197393  -0.670262  3.632247
C    -0.963627  1.359132  3.378286
C    -0.845759  1.624014  4.885076
C    -0.372620  3.035619  5.229594
N    1.126867  3.214660  5.099430
C    1.887379  2.580857  6.160385
N    1.802309  3.102633  7.392272
N    2.595390  1.554573  5.777701
H    -1.884413  1.810041  2.981178
H    -0.152158  1.873340  2.832941
H    -0.173433  0.888807  5.359555
H    -1.824309  1.476384  5.361645
H    -0.693273  3.299183  6.248306
H    -0.822874  3.773156  4.552516
H    1.304793  4.223930  5.130589
H    2.335921  2.722829  8.168676
H    1.201511  3.892318  7.601537
H    3.103300  1.086172  6.532082
N    -2.760476  -1.152573  4.305286
C    -4.069349  -1.768614  4.529670
H    -2.097932  -1.155445  5.072694
H    -4.000169  -2.863951  4.504328
H    -4.750178  -1.440986  3.739150
H    -4.458106  -1.451928  5.502877
Sr    2.600280  1.727209  3.305699
