36
Energy: -108381.721728 eV PBE+vdW (tier 2 basis)
C    -0.252387  -0.797574  0.234967
C    0.065259  -0.666696  1.692505
O    1.194619  -1.044530  2.138907
H    0.517674  -1.395974  -0.259389
H    -0.260018  0.199867  -0.227647
H    -1.239661  -1.243865  0.061049
N    -0.838725  -0.135998  2.547575
C    -2.274512  -0.487327  2.523250
C    -2.427222  -2.039046  2.469838
O    -1.345631  -2.741725  2.756902
H    -0.451428  0.005853  3.478705
H    -2.623953  -0.209430  3.529515
C    -3.103169  0.320849  1.494107
C    -4.004240  1.385501  2.135909
C    -5.306869  0.857699  2.750738
N    -6.337762  0.569405  1.746491
C    -6.880653  -0.624868  1.457588
N    -8.070654  -0.651279  0.826899
N    -6.265550  -1.761947  1.778060
H    -3.695280  -0.369557  0.879230
H    -2.411168  0.826251  0.811140
H    -4.256714  2.150274  1.386947
H    -3.447204  1.921592  2.919468
H    -5.722740  1.608965  3.436448
H    -5.147410  -0.053670  3.342134
H    -6.772223  1.375046  1.307092
H    -8.409394  -1.495869  0.383935
H    -8.687253  0.151747  0.824218
H    -6.793042  -2.624733  1.718993
N    -3.597214  -2.507901  2.216646
C    -3.805664  -3.951190  2.255474
H    -5.229399  -1.849190  1.964305
H    -4.430376  -4.250694  1.403095
H    -4.345662  -4.226627  3.174136
H    -2.872829  -4.528058  2.221947
Sr    0.796725  -3.134878  3.108971
