36
Energy: -108382.105081 eV PBE+vdW (tier 2 basis)
C    0.238313  -0.471893  0.884185
C    0.795749  -0.867903  2.231694
O    2.075342  -0.800915  2.380323
H    -0.247351  -1.326124  0.390177
H    1.056538  -0.123534  0.248102
H    -0.503604  0.330659  0.976444
N    0.102334  -1.332135  3.275432
C    -1.194820  -1.991469  3.174573
C    -0.894022  -3.425355  2.654097
O    0.197161  -3.961301  2.989622
H    -6.112574  3.262469  4.291846
H    -1.499395  -2.172556  4.222594
C    -2.373984  -1.211713  2.535480
C    -3.735189  -1.511220  3.184937
C    -4.920226  -0.769515  2.547161
N    -4.914946  0.688160  2.737071
C    -5.618763  1.368473  3.654135
N    -6.175529  0.743827  4.699703
N    -5.765773  2.695404  3.527109
H    -2.426398  -1.372535  1.446852
H    -2.140973  -0.145822  2.672037
H    -3.681724  -1.275838  4.260310
H    -3.973959  -2.585586  3.131488
H    -5.872873  -1.157504  2.932363
H    -4.943393  -0.943155  1.462161
H    -4.391771  1.244731  2.069584
H    -6.877131  1.202580  5.268812
H    -5.934457  -0.207896  4.941728
H    -5.599800  3.164982  2.645096
N    -1.783794  -4.068710  1.898093
C    -1.612534  -5.432911  1.398088
H    -2.617452  -3.567106  1.614467
H    -2.556426  -5.979352  1.498501
H    -0.838457  -5.929447  1.988204
H    -1.311406  -5.424597  0.342647
Sr    2.076271  -2.639075  3.808156
