36
Energy: -108380.654433 eV PBE+vdW (tier 2 basis)
C    -0.677543  0.510870  2.249625
C    -1.212464  -0.060767  3.522059
O    -0.522200  -0.050269  4.587961
H    -1.430585  1.122045  1.739277
H    -0.386478  -0.295216  1.556366
H    0.209722  1.112641  2.465993
N    -2.440333  -0.633424  3.545940
C    -2.907522  -1.590930  2.519169
C    -1.771407  -2.627716  2.312199
O    -1.041640  -2.935004  3.328112
H    -2.772305  -0.831035  4.488439
H    -3.696269  -2.159354  3.039254
C    -3.552411  -0.995838  1.253858
C    -4.742297  -1.858307  0.770842
C    -5.072591  -1.761660  -0.743655
N    -4.757221  -2.970223  -1.506340
C    -3.490892  -3.512140  -1.588856
N    -2.439612  -2.547878  -1.518773
N    -3.130969  -4.738743  -1.686710
H    -2.804648  -0.874851  0.458559
H    -3.904043  0.013864  1.501791
H    -5.627416  -1.583377  1.361335
H    -4.553916  -2.919623  0.994829
H    -4.575799  -0.888324  -1.193626
H    -6.144252  -1.583414  -0.883515
H    -5.498916  -3.662882  -1.532115
H    -1.624101  -2.957296  -1.977508
H    -2.672817  -1.671097  -1.986633
H    -3.915679  -5.394290  -1.661144
N    -1.604316  -3.183274  1.138570
C    -0.687412  -4.291124  0.864475
H    -2.078617  -2.797560  0.282759
H    0.312016  -3.914882  0.605656
H    -1.096049  -4.848930  0.012706
H    -0.613970  -4.943988  1.738969
Sr    0.135209  -2.222381  5.146131
