36
Energy: -108381.491871 eV PBE+vdW (tier 2 basis)
C    1.190580  -0.128318  0.877721
C    0.568288  0.439104  2.108709
O    1.198854  1.305119  2.811563
H    1.205827  0.652113  0.101937
H    0.642839  -0.999543  0.496295
H    2.234150  -0.394877  1.084085
N    -0.652137  0.030571  2.445286
C    -1.472678  0.585738  3.533084
C    -0.893150  0.171674  4.906320
O    -0.038339  0.919028  5.480472
H    -1.205214  -0.536055  1.740211
H    -1.400573  1.686528  3.511779
C    -2.940961  0.160702  3.344407
C    -3.721101  0.773346  2.162422
C    -3.151196  0.593958  0.743831
N    -2.546021  -0.728510  0.567451
C    -1.855387  -1.113389  -0.624273
N    -1.876025  -0.187073  -1.643501
N    -1.204241  -2.216047  -0.545279
H    -3.486245  0.426586  4.260817
H    -2.984045  -0.938991  3.268803
H    -3.866843  1.849613  2.332189
H    -4.727037  0.331180  2.205521
H    -2.368113  1.341449  0.549639
H    -3.968027  0.799814  0.030916
H    -3.119451  -1.509972  0.882162
H    -1.427270  -0.470305  -2.508572
H    -2.714999  0.366305  -1.789828
H    -0.806369  -2.509268  -1.441056
N    -1.297106  -0.960120  5.455768
C    -0.835952  -1.489696  6.739446
H    -1.982163  -1.510550  4.943960
H    -1.668003  -2.007657  7.226399
H    -0.498705  -0.665746  7.373457
H    -0.013078  -2.200609  6.588147
Sr    1.724428  2.206842  4.789087
