36
Energy: -108381.280425 eV PBE+vdW (tier 2 basis)
C    -1.510812  -0.342240  -0.842960
C    -1.114299  -0.751651  0.540813
O    -1.122235  -1.974266  0.884933
H    -0.756620  0.315468  -1.291187
H    -2.459674  0.216851  -0.820553
H    -1.637283  -1.231758  -1.465548
N    -0.764768  0.189378  1.447488
C    -1.524249  1.449516  1.633540
C    -3.045380  1.101675  1.680594
O    -3.321245  -0.112542  2.125690
H    -0.405055  -0.213987  2.310425
H    -1.261403  1.752921  2.659289
C    -1.101249  2.593693  0.689958
C    -1.010447  3.947586  1.420044
C    -1.016515  5.197441  0.501245
N    -2.192383  6.061830  0.720193
C    -3.441850  5.577186  0.735636
N    -4.396647  6.158118  1.472564
N    -3.761739  4.478155  0.017557
H    -1.802561  2.645317  -0.151941
H    -0.118906  2.343491  0.268078
H    -0.095809  3.958449  2.028676
H    -1.842893  4.037082  2.131997
H    -0.948623  4.916076  -0.560910
H    -0.145047  5.831685  0.693333
H    -2.029495  7.007788  1.052011
H    -5.369529  5.981312  1.248944
H    -4.188298  6.871143  2.161948
H    -3.107672  4.281675  -0.734669
N    -3.924978  1.974247  1.327285
C    -5.331052  1.596931  1.477449
H    -3.989295  3.591889  0.547292
H    -5.582324  0.708123  0.878191
H    -5.967984  2.420424  1.135953
H    -5.582886  1.375201  2.525026
Sr    -2.999798  -2.292664  2.259661
