36
Energy: -108381.483821 eV PBE+vdW (tier 2 basis)
C    0.014002  0.418421  0.107735
C    -0.324508  -0.117749  1.463909
O    0.081331  -1.272513  1.805182
H    1.100107  0.381619  -0.044734
H    -0.338361  1.441074  -0.061564
H    -0.435157  -0.242374  -0.647450
N    -1.058856  0.653018  2.275677
C    -1.706261  0.343030  3.565815
C    -0.742265  0.173992  4.750883
O    0.294677  -0.578254  4.681016
H    -1.300136  1.562598  1.892530
H    -2.275232  1.249609  3.798832
C    -2.731785  -0.812562  3.481175
C    -4.011234  -0.480549  2.683200
C    -4.692475  0.890422  2.858617
N    -5.419997  1.188304  4.106720
C    -4.762635  1.791825  5.177020
N    -5.216560  2.998753  5.577648
N    -3.749370  1.224587  5.790388
H    -2.988069  -1.101190  4.509040
H    -2.263768  -1.701591  3.033107
H    -4.745316  -1.273109  2.884763
H    -3.780542  -0.554974  1.608781
H    -5.442063  0.953467  2.059840
H    -3.976903  1.706255  2.644810
H    -6.354629  1.550133  3.935595
H    -4.928160  3.359251  6.479230
H    -5.823524  3.569970  5.004943
H    -3.820243  0.221237  5.609692
N    -1.085605  0.799340  5.852008
C    -0.349540  0.680935  7.107223
H    -2.065737  1.243897  5.884312
H    -0.864745  1.283507  7.859810
H    0.676114  1.050374  6.988698
H    -0.313407  -0.362311  7.447928
Sr    1.244704  -2.232178  3.502802
