36
Energy: -108381.660891 eV PBE+vdW (tier 2 basis)
C    -0.172034  -0.576351  0.057503
C    -0.128584  -0.445170  1.547364
O    0.869610  -0.892682  2.191864
H    -1.054967  -0.117921  -0.399354
H    -0.153076  -1.645278  -0.198252
H    0.731897  -0.129120  -0.375714
N    -1.165656  0.146048  2.155107
C    -1.471649  0.296258  3.600297
C    -0.504365  1.283034  4.282990
O    0.712392  0.949572  4.512947
H    -1.891719  0.484118  1.529905
H    -2.450581  0.787647  3.607863
C    -1.604257  -1.064493  4.318485
C    -2.148124  -1.015207  5.759596
C    -3.677701  -0.876692  5.926283
N    -4.271321  0.328908  5.343689
C    -3.814460  1.600615  5.603259
N    -3.263287  1.797245  6.848043
N    -3.754174  2.587384  4.743272
H    -0.624786  -1.566867  4.330313
H    -2.246739  -1.700787  3.690768
H    -1.643925  -0.219868  6.329344
H    -1.870572  -1.957762  6.253316
H    -3.918400  -0.945710  6.998356
H    -4.187899  -1.729100  5.459490
H    -4.735905  0.215770  4.450723
H    -3.187682  2.778116  7.099609
H    -3.603994  1.214738  7.606078
H    -4.218248  2.363631  3.859301
N    -0.982675  2.458365  4.611149
C    -0.194823  3.487144  5.282187
H    -2.038536  2.627730  4.533422
H    -0.831140  4.366045  5.416740
H    0.676802  3.765188  4.677605
H    0.151763  3.134307  6.262627
Sr    2.320093  -0.491793  3.886637
