36
Energy: -108380.434994 eV PBE+vdW (tier 2 basis)
C    0.503919  0.388580  1.273832
C    0.049705  0.744237  2.650848
O    0.855424  1.269910  3.485497
H    0.549841  1.284588  0.635679
H    -0.133233  -0.357962  0.789762
H    1.528622  0.002415  1.346746
N    -1.225274  0.518567  3.035044
C    -2.382740  0.832331  2.201474
C    -2.573862  2.381701  2.254221
O    -1.685818  3.128096  2.787120
H    -1.386127  0.620813  4.038070
H    -2.122373  0.592474  1.159063
C    -3.624317  0.020009  2.592702
C    -4.099884  0.192554  4.041189
C    -5.474660  -0.476615  4.309408
N    -5.538056  -1.895816  4.015042
C    -5.583921  -2.415474  2.714554
N    -6.341664  -1.641301  1.823544
N    -4.998812  -3.474431  2.286067
H    -3.392663  -1.034939  2.388971
H    -4.446877  0.245315  1.895297
H    -4.194812  1.262693  4.302558
H    -3.365626  -0.245308  4.739209
H    -6.244187  0.047445  3.727845
H    -5.733517  -0.331611  5.366813
H    -5.054887  -2.500600  4.671777
H    -6.446236  -2.149114  0.946750
H    -7.253743  -1.370636  2.188657
H    -4.391811  -3.901102  2.991762
N    -3.664010  2.873604  1.699563
C    -4.019169  4.289115  1.593909
H    -4.332299  2.200217  1.328565
H    -4.413502  4.483061  0.590648
H    -3.131302  4.902510  1.761825
H    -4.787853  4.542465  2.335222
Sr    0.288619  3.462640  3.941222
