36
Energy: -108381.317515 eV PBE+vdW (tier 2 basis)
C    0.449243  -0.870275  0.136849
C    0.156921  -0.190756  1.438422
O    1.093671  0.298688  2.142026
H    0.192948  -1.939629  0.193040
H    1.511258  -0.767574  -0.100261
H    -0.149483  -0.435025  -0.672577
N    -1.118544  -0.111480  1.882043
C    -2.057525  -1.257487  1.834173
C    -1.310333  -2.528736  2.349343
O    -0.316486  -2.286355  3.186850
H    -1.208551  0.470856  2.712429
H    -2.790669  -1.014744  2.619273
C    -2.829332  -1.394929  0.502361
C    -4.333187  -1.617685  0.737151
C    -5.164753  -2.055286  -0.480811
N    -4.621682  -3.175679  -1.278190
C    -3.873527  -4.184278  -0.815616
N    -3.018331  -4.820384  -1.635095
N    -3.912081  -4.580101  0.473061
H    -2.388865  -2.213354  -0.080459
H    -2.685500  -0.474869  -0.079628
H    -4.790618  -0.676022  1.076584
H    -4.470569  -2.317801  1.571411
H    -5.250630  -1.219971  -1.187951
H    -6.188283  -2.292313  -0.154598
H    -4.758595  -3.114002  -2.282929
H    -2.724495  -5.760877  -1.396874
H    -2.824746  -4.487931  -2.572277
H    -4.740672  -4.292911  0.983744
N    -1.695009  -3.701324  1.981060
C    -1.005088  -4.847889  2.574282
H    -3.025347  -4.411713  1.026632
H    -0.993043  -4.799316  3.672734
H    0.039048  -4.909497  2.229681
H    -1.512037  -5.772031  2.275419
Sr    1.422220  -1.164671  3.952210
