36
Energy: -108380.268618 eV PBE+vdW (tier 2 basis)
C    0.628710  0.541073  1.225053
C    -0.294137  -0.504704  1.759874
O    -0.394931  -1.630576  1.176409
H    1.210026  1.012981  2.025030
H    0.062887  1.335930  0.713985
H    1.304348  0.081259  0.497941
N    -1.050061  -0.282253  2.861101
C    -1.815365  0.944445  3.130794
C    -2.802784  1.149491  1.944531
O    -2.939121  0.252324  1.048010
H    -1.488119  -1.131678  3.215167
H    -2.442657  0.688928  4.000276
C    -0.999095  2.185838  3.544460
C    -0.075694  1.901536  4.732051
C    0.456812  3.190465  5.409711
N    0.876558  2.982890  6.774045
C    -0.048861  2.643945  7.760316
N    0.521329  2.160551  8.920798
N    -1.338826  2.705329  7.662899
H    -1.720655  2.957343  3.861685
H    -0.458911  2.614951  2.689374
H    0.768397  1.264248  4.429528
H    -0.637123  1.338464  5.493881
H    -0.326534  3.966838  5.395436
H    1.304397  3.607546  4.850456
H    1.827189  2.657000  6.912448
H    -0.141635  2.095319  9.687176
H    1.420669  2.540870  9.197527
H    -1.638679  3.069349  6.756694
N    -3.520625  2.256422  1.914390
C    -4.544451  2.560538  0.909956
H    -3.362681  2.941691  2.648719
H    -4.993420  3.525506  1.158005
H    -5.324340  1.790105  0.915212
H    -4.095129  2.620213  -0.088321
Sr    -2.417578  -1.777102  0.054240
