36
Energy: -108380.959007 eV PBE+vdW (tier 2 basis)
C    -0.041010  1.182942  -0.375969
C    0.067694  0.385592  0.882508
O    1.204515  0.046780  1.344098
H    0.060191  2.257828  -0.155931
H    -0.991977  1.025774  -0.894823
H    0.791605  0.910006  -1.034341
N    -1.045582  0.041321  1.564109
C    -2.156852  0.966740  1.814573
C    -1.600998  2.183776  2.584106
O    -0.439335  2.127336  3.131060
H    -0.888244  -0.626567  2.320099
H    -2.569626  1.310526  0.854173
C    -3.263816  0.276258  2.620920
C    -4.054724  -0.776436  1.834178
C    -5.437393  -1.042498  2.468318
N    -6.465895  -0.072920  2.123033
C    -6.796926  1.024627  2.888358
N    -8.095434  1.447591  2.715035
N    -5.894659  1.604843  3.631031
H    -3.979529  1.026390  3.001114
H    -2.815336  -0.168348  3.526906
H    -3.499644  -1.724751  1.773954
H    -4.211486  -0.439184  0.797815
H    -5.346697  -1.090142  3.563711
H    -5.791902  -2.025338  2.132207
H    -7.144922  -0.359153  1.428907
H    -8.391456  2.271498  3.223499
H    -8.825588  0.759742  2.564870
H    -6.330930  2.275348  4.267634
N    -2.334452  3.275386  2.687202
C    -3.664433  3.532010  2.118764
H    -1.931399  4.010223  3.267672
H    -4.449791  2.980220  2.670221
H    -3.692552  3.240902  1.061943
H    -3.850506  4.607308  2.183662
Sr    1.653816  1.219162  3.295722
