36
Energy: -108382.103358 eV PBE+vdW (tier 2 basis)
C    0.840119  0.802368  0.844289
C    0.265471  -0.394757  1.535377
O    0.801032  -1.547012  1.373024
H    0.353776  1.738054  1.137126
H    0.721118  0.670790  -0.240596
H    1.916671  0.870795  1.045571
N    -0.797934  -0.226757  2.299283
C    -1.602243  -1.218980  3.006412
C    -2.644230  -0.330639  3.766212
O    -2.447516  0.885681  3.823197
H    -1.159056  0.721165  2.519327
H    -2.129850  -1.842642  2.266873
C    -0.810838  -2.148454  3.952002
C    0.155314  -1.451540  4.914749
C    1.127828  -2.426186  5.582663
N    2.227860  -2.848686  4.668420
C    3.333570  -1.966555  4.416127
N    3.596613  -0.985295  5.288387
N    3.951518  -2.211586  3.289060
H    -0.276133  -2.887896  3.332786
H    -1.537575  -2.739127  4.528570
H    -0.414242  -0.935343  5.699982
H    0.723045  -0.661176  4.399638
H    0.609347  -3.348585  5.876760
H    1.520518  -2.003852  6.520694
H    2.613673  -3.744857  4.977991
H    3.183736  -0.966542  6.213924
H    4.342702  -0.320569  5.111512
H    4.819680  -1.687660  3.161408
N    -3.683898  -0.971548  4.323923
C    -4.751411  -0.278574  5.046247
H    -3.814926  -1.958235  4.126496
H    -4.997596  -0.829695  5.960377
H    -5.649960  -0.192155  4.422080
H    -4.400711  0.724037  5.304709
Sr    2.209162  -3.223920  1.897127
