36
Energy: -108381.852217 eV PBE+vdW (tier 2 basis)
C    0.223587  1.463157  1.034098
C    -0.179341  0.500901  2.113762
O    0.582964  0.346983  3.137206
H    -0.508387  1.525343  0.222882
H    1.186746  1.145993  0.611402
H    0.358432  2.466527  1.460634
N    -1.314494  -0.147563  1.952218
C    -1.964988  -1.203195  2.727906
C    -3.024000  -1.737087  1.710043
O    -3.259674  -1.057217  0.706337
H    -1.889024  -0.004850  1.090526
H    -1.231508  -1.990201  2.958828
C    -2.636101  -0.691763  4.033117
C    -1.746156  -0.907675  5.259705
C    -2.131395  -0.092767  6.506891
N    -0.970887  0.031387  7.403249
C    0.110457  0.754719  7.068061
N    1.369992  0.369649  7.577045
N    0.165645  1.723359  6.179541
H    -3.604836  -1.189741  4.171183
H    -2.866186  0.374780  3.895194
H    -0.721629  -0.628813  4.976690
H    -1.714778  -1.976049  5.520822
H    -2.939056  -0.562205  7.079328
H    -2.496750  0.909176  6.238469
H    -0.924571  -0.578835  8.213493
H    1.841714  1.126415  8.075449
H    1.381808  -0.482258  8.137205
H    -0.752134  2.083882  5.914576
N    -3.642632  -2.900974  1.973733
C    -3.445706  -3.811361  3.093343
H    -4.347042  -3.151631  1.282720
H    -2.413297  -3.768735  3.458938
H    -3.628656  -4.835797  2.752470
H    -4.132550  -3.598201  3.925481
Sr    2.005978  0.996048  4.781514
