36
Energy: -108380.732381 eV PBE+vdW (tier 2 basis)
C    -0.828445  1.654943  -0.525281
C    -0.437709  0.776097  0.613014
O    0.787582  0.545684  0.871589
H    -0.178383  2.535854  -0.579811
H    -1.881722  1.953956  -0.513420
H    -0.647713  1.081785  -1.449742
N    -1.384188  0.201161  1.389953
C    -2.535579  0.941725  1.919725
C    -1.974872  2.145953  2.704937
O    -0.769932  2.111403  3.149899
H    -1.011360  -0.505427  2.026431
H    -3.160668  1.304607  1.084575
C    -3.366167  0.028188  2.856545
C    -3.839745  -1.317279  2.264656
C    -5.138504  -1.313912  1.434692
N    -5.083746  -0.536026  0.201062
C    -5.280199  0.830690  0.141844
N    -6.219634  1.334809  1.031518
N    -4.632599  1.667523  -0.615959
H    -4.229903  0.606648  3.210895
H    -2.751312  -0.180020  3.748059
H    -4.002761  -2.000780  3.111360
H    -3.036580  -1.778660  1.667259
H    -5.969960  -0.953728  2.052491
H    -5.382678  -2.352774  1.174909
H    -4.441787  -0.888242  -0.502125
H    -6.527347  2.262013  0.749381
H    -7.010717  0.725556  1.221806
H    -3.977899  1.174257  -1.230393
N    -2.725077  3.208767  2.920946
C    -4.073945  3.486484  2.411414
H    -2.296503  3.923477  3.508875
H    -4.226883  4.568783  2.449264
H    -4.167798  3.149678  1.370832
H    -4.835442  2.996547  3.028755
Sr    1.425693  1.505937  2.882967
