36
Energy: -108382.346689 eV PBE+vdW (tier 2 basis)
C    -0.038240  0.175369  1.201474
C    -0.564524  0.591701  2.538237
O    0.206594  0.805531  3.507591
H    0.896153  -0.376058  1.351304
H    0.206410  1.065797  0.600974
H    -0.746320  -0.440487  0.636692
N    -1.909868  0.753202  2.710574
C    -2.749808  1.427735  1.728508
C    -2.182440  2.859418  1.519954
O    -1.378593  3.341673  2.368516
H    -2.180561  0.944294  3.676535
H    -2.678538  0.881574  0.777134
C    -4.242327  1.430105  2.150270
C    -4.715844  2.471077  3.191272
C    -4.771009  2.052212  4.672095
N    -3.490654  1.646571  5.276476
C    -2.476174  2.458998  5.676770
N    -2.528447  3.821902  5.341114
N    -1.338007  2.090064  6.208000
H    -4.488895  0.407676  2.472851
H    -4.827553  1.588920  1.236452
H    -5.750502  2.744556  2.939744
H    -4.147347  3.407266  3.069423
H    -5.441545  1.191410  4.784001
H    -5.221681  2.861755  5.266808
H    -3.428541  0.686930  5.605195
H    -2.301633  4.409150  6.143862
H    -3.371303  4.151891  4.878283
H    -1.315136  1.124798  6.543658
N    -2.542866  3.564018  0.451001
C    -3.430907  3.185294  -0.650061
H    -2.140351  4.500008  0.409978
H    -3.398068  2.106143  -0.829791
H    -3.088149  3.689287  -1.559191
H    -4.465463  3.492003  -0.449158
Sr    0.024042  3.060018  4.336891
