36
Energy: -108381.59184 eV PBE+vdW (tier 2 basis)
C    1.307003  -0.692022  0.490768
C    0.899829  -0.272555  1.858628
O    1.785087  0.076481  2.717620
H    2.144257  -0.069687  0.154368
H    0.479216  -0.640726  -0.235087
H    1.673634  -1.729366  0.540786
N    -0.392069  -0.295608  2.191507
C    -0.909635  0.109818  3.505754
C    -0.390569  -0.821977  4.626369
O    0.592392  -0.460384  5.348566
H    -1.115854  -0.377845  1.425384
H    -0.499363  1.102871  3.755014
C    -2.447073  0.205127  3.505916
C    -3.083975  1.183612  2.494694
C    -3.611102  0.512261  1.217969
N    -2.545978  -0.001336  0.344272
C    -1.941088  0.800541  -0.672437
N    -2.230128  2.147100  -0.627049
N    -1.112773  0.187641  -1.437778
H    -2.735594  0.495193  4.525454
H    -2.885527  -0.793994  3.343071
H    -2.384307  1.992115  2.234439
H    -3.936727  1.671394  2.985774
H    -4.287337  1.202195  0.688185
H    -4.241342  -0.344570  1.492813
H    -2.759548  -0.907166  -0.069426
H    -1.859133  2.695787  -1.395871
H    -3.160861  2.441250  -0.348111
H    -0.748995  0.779194  -2.188076
N    -0.993326  -1.983719  4.817270
C    -0.634020  -2.965850  5.840313
H    -1.777406  -2.208477  4.210447
H    0.026606  -3.736118  5.421004
H    -1.547599  -3.444349  6.206928
H    -0.131870  -2.460132  6.668958
Sr    2.640182  0.383516  4.756723
