36
Energy: -108381.379796 eV PBE+vdW (tier 2 basis)
C    -2.466120  0.966811  0.246673
C    -1.794699  0.935854  1.576191
O    -0.529556  1.109692  1.679503
H    -1.756835  1.284660  -0.521676
H    -3.337843  1.649406  0.267197
H    -2.841347  -0.034500  -0.010533
N    -2.532877  0.720059  2.668330
C    -1.979992  0.735075  4.023054
C    -1.033601  -0.470067  4.231671
O    0.224782  -0.253115  4.229535
H    -3.582685  0.691728  2.573321
H    -1.307358  1.604315  4.105346
C    -3.052277  0.876970  5.124804
C    -3.541450  2.310166  5.439551
C    -4.866330  2.785983  4.810632
N    -4.798345  3.246697  3.430498
C    -5.035182  2.546768  2.274112
N    -5.325990  1.161551  2.447195
N    -4.923846  2.959681  1.061910
H    -2.599869  0.472507  6.041680
H    -3.909902  0.226165  4.907764
H    -2.753225  3.044957  5.213451
H    -3.687679  2.362178  6.527827
H    -5.233409  3.630136  5.409370
H    -5.636508  2.007646  4.921950
H    -4.644958  4.239521  3.298046
H    -5.968562  0.967144  3.215298
H    -5.739756  0.826348  1.575611
H    -4.664870  3.946977  0.992488
N    -1.472695  -1.709969  4.395687
C    -2.839882  -2.235790  4.398497
H    -0.730115  -2.389865  4.560434
H    -2.798814  -3.281487  4.078146
H    -3.470198  -1.687277  3.693125
H    -3.276570  -2.194963  5.403931
Sr    1.477455  0.849583  2.650835
