36
Energy: -108381.662134 eV PBE+vdW (tier 2 basis)
C    -2.774523  -1.873781  1.026328
C    -1.878742  -1.208258  2.013005
O    -0.630520  -1.495042  2.059852
H    -2.509414  -1.520552  0.018020
H    -3.837350  -1.669057  1.227420
H    -2.587513  -2.955035  1.037542
N    -2.405243  -0.303136  2.836858
C    -1.643739  0.552189  3.756919
C    -1.122385  -0.271514  4.956360
O    0.017366  -0.832973  4.885976
H    -3.390650  0.017658  2.650846
H    -0.733619  0.898294  3.238897
C    -2.473775  1.782251  4.167640
C    -2.953199  2.692074  3.010880
C    -4.442018  2.519740  2.671011
N    -4.721408  1.175376  2.156760
C    -5.834518  0.367281  2.516228
N    -6.764269  0.951804  3.344764
N    -5.775151  -0.851869  2.108716
H    -1.854956  2.364696  4.863111
H    -3.361279  1.459956  4.738778
H    -2.341431  2.534479  2.108667
H    -2.793407  3.740401  3.295803
H    -4.749479  3.295610  1.954037
H    -5.028416  2.673042  3.585736
H    -4.527253  1.064953  1.163750
H    -7.559374  0.372926  3.594840
H    -7.010363  1.925129  3.190401
H    -6.633364  -1.375487  2.293026
N    -1.874926  -0.380519  6.036998
C    -1.518276  -1.133897  7.239432
H    -2.774481  0.093082  6.029719
H    -1.974334  -0.647805  8.107055
H    -0.431242  -1.142144  7.356279
H    -1.888563  -2.165296  7.171992
Sr    1.244717  -1.828982  3.224760
