36
Energy: -108382.089042 eV PBE+vdW (tier 2 basis)
C    0.867548  1.054339  -0.045760
C    0.776698  0.647094  1.391890
O    1.817768  0.670435  2.120397
H    -0.095297  1.043988  -0.566657
H    1.557246  0.368512  -0.557933
H    1.305528  2.058014  -0.117549
N    -0.415426  0.260790  1.860217
C    -0.785287  -0.345401  3.154173
C    -0.701168  0.577037  4.373762
O    0.380507  1.200621  4.680308
H    -1.173622  0.300222  1.185312
H    -1.850693  -0.567498  3.031627
C    -0.063135  -1.686713  3.443712
C    -0.754537  -2.905135  2.819033
C    -2.177555  -3.182364  3.339473
N    -3.240018  -2.452809  2.634287
C    -4.194157  -1.687337  3.274616
N    -5.428050  -1.708368  2.688971
N    -3.871732  -0.947085  4.306171
H    -0.033392  -1.826048  4.535297
H    0.982031  -1.630449  3.105894
H    -0.136242  -3.786286  3.041582
H    -0.772058  -2.824420  1.721008
H    -2.260760  -2.935013  4.406058
H    -2.379242  -4.259147  3.247080
H    -3.562685  -2.895148  1.779575
H    -6.151019  -1.096306  3.046799
H    -5.757893  -2.542416  2.216568
H    -4.706270  -0.557284  4.747699
N    -1.776269  0.575104  5.118889
C    -1.895953  1.252200  6.402030
H    -2.609396  -0.048542  4.780190
H    -2.403857  0.584993  7.107852
H    -2.497643  2.164440  6.292432
H    -0.910498  1.521007  6.792979
Sr    2.541158  1.403767  4.140313
