36
Energy: -108381.331368 eV PBE+vdW (tier 2 basis)
C    -1.071180  1.700995  2.654711
C    -2.017531  0.690075  3.221863
O    -2.007348  0.470810  4.474771
H    -0.074120  1.260909  2.504467
H    -0.955321  2.495507  3.402352
H    -1.415736  2.133346  1.712763
N    -2.941502  0.047523  2.461342
C    -2.708124  -0.784396  1.257162
C    -2.180705  -2.179611  1.729160
O    -1.595287  -2.231111  2.908190
H    -3.623062  -0.409843  3.068904
H    -3.710626  -0.960784  0.848109
C    -1.826283  -0.161898  0.161303
C    -2.515816  0.894126  -0.731629
C    -3.121052  0.389281  -2.055477
N    -4.356175  -0.404352  -1.938683
C    -4.429313  -1.683899  -1.534803
N    -5.590634  -2.161490  -1.047079
N    -3.373678  -2.508688  -1.551077
H    -1.456422  -0.990876  -0.453148
H    -0.920762  0.261361  0.609167
H    -1.768011  1.645605  -1.024304
H    -3.283233  1.442490  -0.163728
H    -2.371385  -0.170957  -2.633527
H    -3.382661  1.251360  -2.680148
H    -5.227310  0.076115  -2.141491
H    -5.750018  -3.162681  -1.067617
H    -6.399952  -1.564379  -0.925673
H    -2.579206  -2.196081  -2.100104
N    -2.382204  -3.170334  0.932646
C    -1.891565  -4.492660  1.311864
H    -3.086284  -2.959829  -0.618298
H    -1.974483  -5.168212  0.454254
H    -2.491676  -4.916194  2.132220
H    -0.841803  -4.467522  1.638163
Sr    -1.252108  -1.683824  5.013875
