36
Energy: -108380.351401 eV PBE+vdW (tier 2 basis)
C    -0.458570  0.974502  -0.744739
C    -0.042882  0.513341  0.591332
O    0.751795  -0.486914  0.710114
H    0.139286  1.915483  -0.983216
H    -1.509365  1.275325  -0.812940
H    -0.219236  0.222842  -1.502643
N    -0.427150  1.127886  1.744430
C    -1.785272  1.582708  2.052235
C    -2.735253  0.347842  1.921086
O    -2.276084  -0.807489  1.646202
H    0.085313  0.768943  2.548389
H    -1.769320  1.805387  3.132001
C    -2.266081  2.861270  1.323181
C    -1.993223  4.208229  2.008724
C    -0.527806  4.657003  2.229954
N    0.456950  4.233653  1.240873
C    0.381124  4.236000  -0.132899
N    -0.670181  4.944386  -0.688314
N    1.154908  3.547340  -0.924637
H    -3.353020  2.794478  1.172286
H    -1.849908  2.891347  0.311526
H    -2.491260  4.246291  2.990351
H    -2.513072  4.953206  1.392750
H    -0.161847  4.258231  3.185612
H    -0.533128  5.752675  2.358092
H    1.297263  3.808618  1.608557
H    -0.563105  5.039006  -1.695149
H    -0.906859  5.826552  -0.243383
H    1.890071  3.059463  -0.403921
N    -4.021284  0.524300  2.164757
C    -5.025288  -0.543572  2.158057
H    -4.338367  1.464877  2.383713
H    -5.995226  -0.106116  2.407393
H    -4.775141  -1.308424  2.902732
H    -5.085382  -1.004813  1.165363
Sr    -0.573996  -2.300451  1.123472
