36
Energy: -108382.445073 eV PBE+vdW (tier 2 basis)
C    0.243723  2.346711  -0.242188
C    0.212520  1.152292  0.676028
O    1.179804  0.299774  0.605538
H    0.709717  3.204384  0.265940
H    -0.753845  2.660940  -0.572505
H    0.864040  2.112301  -1.112804
N    -0.721741  0.909696  1.603122
C    -1.582529  1.968920  2.106894
C    -0.939655  2.484292  3.422708
O    0.017501  1.845789  3.948057
H    -1.415646  -0.497146  -0.128059
H    -1.639627  2.823421  1.409162
C    -3.022637  1.467016  2.359793
C    -3.676085  0.874976  1.095521
C    -3.613171  -0.662312  1.068896
N    -3.860651  -1.244453  -0.251678
C    -2.912102  -1.456773  -1.173579
N    -3.219931  -2.074762  -2.323330
N    -1.652583  -1.061179  -0.943168
H    -3.632363  2.301564  2.729521
H    -3.011222  0.722935  3.172161
H    -3.184961  1.279729  0.197468
H    -4.726101  1.188942  1.031547
H    -4.357611  -1.089126  1.753052
H    -2.634646  -1.017517  1.419741
H    -4.823016  -1.422929  -0.519545
H    -4.122044  -2.512441  -2.465230
H    -2.560071  -2.126628  -3.089391
H    -0.895380  -1.346928  -1.550991
N    -1.429481  3.594472  3.964539
C    -0.964508  4.201571  5.211390
H    -2.178645  4.070356  3.469506
H    -1.803510  4.304887  5.909341
H    -0.540011  5.192767  5.010973
H    -0.199058  3.559605  5.652710
Sr    1.141071  0.002669  2.950487
