36
Energy: -108383.185179 eV PBE+vdW (tier 2 basis)
C    -0.068956  0.756476  0.222174
C    -0.033047  0.336634  1.660144
O    1.037101  -0.068161  2.183514
H    0.206905  -0.106188  -0.400001
H    0.691197  1.529618  0.052089
H    -1.043711  1.132337  -0.105436
N    -1.187994  0.411676  2.354243
C    -1.464233  -0.051906  3.730084
C    -0.695902  0.791189  4.775137
O    0.517401  0.574016  5.038736
H    -1.992088  0.750921  1.835231
H    -2.535439  0.146803  3.875927
C    -1.232026  -1.560991  3.907799
C    -1.590882  -2.088006  5.307583
C    -0.716191  -3.278995  5.726136
N    0.682863  -2.861712  5.816607
C    1.759725  -3.399889  5.180587
N    1.716640  -4.720267  4.891766
N    2.761670  -2.590322  4.846665
H    -0.182653  -1.788885  3.682024
H    -1.823128  -2.079807  3.141061
H    -2.645929  -2.390170  5.350830
H    -1.477187  -1.299307  6.069854
H    -0.787848  -4.084986  4.983848
H    -1.065194  -3.681505  6.687613
H    0.868235  -1.998087  6.314774
H    1.147436  -5.355283  5.439596
H    2.446358  -5.139403  4.328693
H    3.614806  -3.126892  4.669351
N    -1.391107  1.739446  5.396814
C    -0.848725  2.643395  6.410621
H    -2.365210  1.863979  5.136259
H    -1.630416  2.865259  7.143741
H    -0.512501  3.582024  5.950999
H    -0.003928  2.161853  6.910307
Sr    2.480957  -0.285867  4.018631
