36
Energy: -108382.429382 eV PBE+vdW (tier 2 basis)
C    0.146663  1.368218  0.719211
C    0.182068  0.231767  1.686533
O    1.070351  0.145003  2.575678
H    -0.420033  2.206212  1.155495
H    -0.313493  1.098406  -0.237291
H    1.169112  1.725502  0.555817
N    -0.771324  -0.743572  1.633809
C    -2.193212  -0.488238  1.436381
C    -2.656560  0.477114  2.557469
O    -2.006610  0.500875  3.645572
H    -0.597948  -1.483338  2.324404
H    -2.349471  -0.049079  0.442312
C    -3.019968  -1.792489  1.575371
C    -2.511048  -3.050022  0.846364
C    -1.416949  -3.881864  1.555947
N    -1.718240  -4.176139  2.960321
C    -1.285831  -3.467468  4.028808
N    -2.027333  -3.537325  5.170605
N    -0.226092  -2.654017  4.022409
H    -4.029990  -1.566789  1.209493
H    -3.143399  -2.016275  2.646946
H    -2.145609  -2.803817  -0.161422
H    -3.382499  -3.702805  0.694459
H    -0.435063  -3.399411  1.495723
H    -1.301826  -4.838548  1.031403
H    -2.402541  -4.907722  3.131141
H    -1.524663  -3.507186  6.050811
H    -2.889437  -4.072315  5.187121
H    0.454570  -2.970377  3.324969
N    -3.734827  1.233750  2.395061
C    -4.629397  1.333528  1.240864
H    -3.988255  1.785417  3.215148
H    -4.123220  1.021211  0.323251
H    -4.936883  2.377870  1.123373
H    -5.525053  0.716507  1.388827
Sr    0.010583  -0.271422  4.696543
