36
Energy: -108381.716861 eV PBE+vdW (tier 2 basis)
C    -0.868135  1.044554  0.243082
C    -1.089677  1.103775  1.717422
O    -0.857944  2.182863  2.360575
H    -1.434624  1.853398  -0.237216
H    -1.167680  0.086263  -0.190160
H    0.194312  1.220809  0.027622
N    -1.540796  0.024066  2.353773
C    -1.845393  0.028297  3.785102
C    -0.549307  0.174996  4.619471
O    -0.386890  1.284157  5.248000
H    -1.675283  -0.869821  1.853703
H    -2.373111  0.974486  3.977873
C    -2.864839  -1.060330  4.195086
C    -2.509612  -2.554109  4.236867
C    -2.520173  -3.364103  2.927952
N    -1.652878  -2.886656  1.832242
C    -0.262454  -2.866934  1.980053
N    0.422401  -2.381528  0.891479
N    0.381337  -3.090234  3.087506
H    -3.748485  -0.901200  3.556532
H    -3.185972  -0.777660  5.208160
H    -3.282952  -3.030153  4.857901
H    -1.582875  -2.702357  4.804659
H    -3.538399  -3.356836  2.517370
H    -2.292473  -4.415006  3.172049
H    -1.981976  -3.192860  0.916951
H    1.410956  -2.614596  0.888027
H    -0.015692  -2.427321  -0.022208
H    -0.195965  -3.619622  3.742829
N    0.367288  -0.764481  4.637170
C    1.614715  -0.646646  5.391392
H    0.304064  -1.620942  4.014701
H    2.130660  -1.609047  5.334388
H    1.409966  -0.396778  6.438218
H    2.266021  0.126959  4.961555
Sr    -0.371615  3.335688  4.266299
