36
Energy: -108381.431658 eV PBE+vdW (tier 2 basis)
C    0.497422  -0.025042  0.234110
C    0.251193  -0.150466  1.700437
O    1.202183  -0.438320  2.496623
H    1.231218  0.775963  0.066595
H    -0.408619  0.196158  -0.338978
H    0.947315  -0.953468  -0.141735
N    -0.982805  0.052670  2.174942
C    -1.318412  0.087435  3.607437
C    -1.243073  -1.329469  4.216058
O    -0.215999  -1.609066  4.933035
H    -1.718660  0.305867  1.518682
H    -0.500854  0.630814  4.108845
C    -2.621821  0.849190  3.848121
C    -2.974550  0.964166  5.347698
C    -4.481527  0.816343  5.628777
N    -5.334109  1.646712  4.799952
C    -6.024053  1.140349  3.718961
N    -7.054395  1.941578  3.282451
N    -5.626326  0.029072  3.166359
H    -3.462635  0.389357  3.303623
H    -2.492356  1.851900  3.416620
H    -2.609402  1.924545  5.738739
H    -2.462538  0.185395  5.938813
H    -4.670900  1.051215  6.685355
H    -4.787916  -0.225852  5.465793
H    -5.620571  2.547938  5.160036
H    -7.612164  1.597498  2.510669
H    -7.576283  2.487488  3.959673
H    -6.290184  -0.283503  2.455820
N    -2.162618  -2.254278  4.008038
C    -3.344279  -2.242630  3.133600
H    -1.973785  -3.128183  4.499151
H    -3.794687  -3.237327  3.187595
H    -3.044186  -2.059827  2.094189
H    -4.100612  -1.491706  3.425980
Sr    1.987964  -1.264987  4.469479
