36
Energy: -108381.921068 eV PBE+vdW (tier 2 basis)
C    1.568829  1.041959  0.960321
C    1.103819  1.338174  2.350972
O    1.645271  2.262185  3.034945
H    2.612729  1.355809  0.860776
H    0.972375  1.618177  0.234960
H    1.472469  -0.019067  0.706147
N    0.077567  0.635418  2.876689
C    -1.137790  0.328974  2.109428
C    -1.769961  1.657785  1.605420
O    -1.356426  2.767879  2.190611
H    -0.096485  0.851587  3.859082
H    -0.852419  -0.256485  1.225790
C    -2.069246  -0.505971  3.015727
C    -3.389673  -0.956435  2.383778
C    -3.199742  -1.927530  1.208751
N    -4.407529  -2.117753  0.408865
C    -4.721172  -1.388223  -0.674222
N    -5.727729  -1.802241  -1.465941
N    -4.035202  -0.283995  -0.974766
H    -2.303253  0.084952  3.915925
H    -1.494360  -1.380425  3.358129
H    -3.956824  -0.079522  2.045479
H    -3.997155  -1.441665  3.160472
H    -2.885063  -2.916363  1.567500
H    -2.415623  -1.580433  0.522415
H    -5.073840  -2.821716  0.707473
H    -6.128275  -1.192424  -2.167032
H    -6.087423  -2.747201  -1.414906
H    -4.165335  0.127836  -1.891096
N    -2.639339  1.583366  0.657442
C    -3.261361  2.831568  0.216299
H    -3.447464  0.260447  -0.289195
H    -4.134577  2.604237  -0.406200
H    -2.564609  3.428717  -0.392569
H    -3.593207  3.456458  1.057658
Sr    0.144181  4.058170  3.170643
