36
Energy: -108381.053014 eV PBE+vdW (tier 2 basis)
C    -2.678966  1.619103  -0.736945
C    -1.816670  1.289562  0.429108
O    -1.034053  2.160010  0.940184
H    -3.573668  0.988432  -0.804954
H    -2.087445  1.409008  -1.644311
H    -2.932313  2.683206  -0.748255
N    -1.827681  0.047391  0.958757
C    -3.037340  -0.720260  1.237197
C    -3.805543  0.019383  2.342851
O    -3.260953  0.989744  2.985254
H    -1.053717  -0.132069  1.600770
H    -3.684010  -0.758286  0.324394
C    -2.684073  -2.186578  1.620346
C    -3.077872  -3.245516  0.582866
C    -2.301338  -3.273614  -0.734859
N    -2.303952  -2.047252  -1.559044
C    -3.449278  -1.493287  -2.108155
N    -3.297005  -1.046670  -3.402595
N    -4.503237  -1.308050  -1.361598
H    -3.170620  -2.441892  2.571952
H    -1.602053  -2.238173  1.824592
H    -4.150672  -3.178058  0.368980
H    -2.921046  -4.231472  1.045412
H    -2.682166  -4.125709  -1.321735
H    -1.242051  -3.479822  -0.527572
H    -1.503402  -2.008769  -2.182441
H    -2.721816  -1.586148  -4.042458
H    -4.102566  -0.615076  -3.842282
H    -5.298893  -0.980181  -1.913768
N    -5.047586  -0.333720  2.624533
C    -5.865831  -1.356872  1.965061
H    -5.472784  0.166617  3.404459
H    -6.906987  -1.019133  1.976217
H    -5.799566  -2.311339  2.502687
H    -5.548588  -1.488870  0.924090
Sr    -1.687884  2.649422  3.104246
