36
Energy: -108382.494617 eV PBE+vdW (tier 2 basis)
C    0.386506  -0.347910  1.452710
C    0.092768  0.418403  2.701093
O    1.011964  0.819867  3.466419
H    0.518401  0.349093  0.609950
H    -0.409519  -1.054058  1.192133
H    1.333615  -0.882224  1.581315
N    -1.189770  0.723881  3.028631
C    -2.233640  1.111304  2.094495
C    -1.748240  2.381555  1.347218
O    -0.869682  3.117320  1.880282
H    -1.313328  1.150712  3.955775
H    -2.420936  0.295227  1.381649
C    -3.538358  1.452850  2.872615
C    -3.820560  0.581660  4.118996
C    -3.605902  1.321745  5.451522
N    -2.227080  1.829898  5.613260
C    -1.907809  3.126617  6.001670
N    -2.869265  3.867912  6.586554
N    -0.691864  3.568036  5.724365
H    -4.371607  1.376013  2.164051
H    -3.495854  2.512458  3.169211
H    -3.230783  -0.345914  4.097327
H    -4.869886  0.258677  4.105850
H    -3.872497  0.665576  6.291736
H    -4.286377  2.181568  5.476653
H    -1.553414  1.153366  5.967946
H    -2.714975  4.852128  6.773288
H    -3.654981  3.437733  7.061129
H    -0.488679  4.405136  6.279556
N    -2.318506  2.657254  0.182000
C    -2.060259  3.844179  -0.633602
H    -2.999396  1.991319  -0.175615
H    -2.992011  4.403248  -0.779998
H    -1.665165  3.544712  -1.611659
H    -1.331367  4.475798  -0.121493
Sr    0.714083  3.187109  3.703365
