36
Energy: -108382.431141 eV PBE+vdW (tier 2 basis)
C    -0.393208  1.690984  1.892671
C    -1.355786  0.787728  2.593466
O    -1.388375  0.709358  3.851441
H    -0.104393  1.320454  0.903149
H    0.497301  1.805570  2.519855
H    -0.837341  2.691673  1.773768
N    -2.227811  0.029972  1.873865
C    -2.942080  0.498057  0.698277
C    -3.933899  1.618021  1.148400
O    -4.050114  1.933520  2.365592
H    -2.767741  -0.612536  2.456545
H    -2.222697  0.989047  0.025760
C    -3.556959  -0.692988  -0.089546
C    -4.235851  -1.807656  0.722601
C    -5.647112  -1.512897  1.286185
N    -5.910600  -2.187436  2.554257
C    -5.441185  -1.747142  3.751761
N    -5.395296  -2.627276  4.773220
N    -5.013298  -0.497003  3.923739
H    -2.728841  -1.146803  -0.649632
H    -4.248104  -0.304167  -0.851972
H    -3.582558  -2.133063  1.546075
H    -4.298174  -2.689233  0.070737
H    -6.418438  -1.842004  0.580080
H    -5.822019  -0.432311  1.404568
H    -6.355320  -3.098260  2.515309
H    -5.350326  -2.283537  5.723254
H    -5.630352  -3.604324  4.649488
H    -5.349270  0.044230  3.120770
N    -4.609607  2.253198  0.198228
C    -5.534518  3.361481  0.450702
H    -4.459202  1.976933  -0.767758
H    -5.839235  3.784036  -0.510114
H    -5.041665  4.137986  1.046392
H    -6.425126  3.009324  0.985736
Sr    -3.556319  1.294787  4.662810
