36
Energy: -108382.318257 eV PBE+vdW (tier 2 basis)
C    -0.874980  1.880686  0.772431
C    -0.694133  1.163916  2.081427
O    0.507834  0.692859  2.312478
H    -0.214415  2.757870  0.737397
H    -1.906628  2.213130  0.626107
H    -0.575388  1.225590  -0.056614
N    -1.726677  1.060307  2.875957
C    -1.676057  0.299563  4.136158
C    -0.598972  0.776774  5.121417
O    0.558970  0.257763  5.196375
H    -4.766215  2.177014  1.741321
H    -2.632702  0.523937  4.638073
C    -1.655078  -1.231772  3.923958
C    -3.015496  -1.838180  3.528471
C    -3.550606  -1.592071  2.109262
N    -3.913661  -0.196626  1.866456
C    -4.927460  0.226209  1.118104
N    -5.689417  -0.611096  0.394594
N    -5.209347  1.544064  1.088737
H    -1.348961  -1.712122  4.864759
H    -0.896036  -1.493076  3.168348
H    -3.779696  -1.523836  4.256284
H    -2.933973  -2.929408  3.634070
H    -4.443584  -2.220336  1.987762
H    -2.811008  -1.922373  1.360094
H    -3.185441  0.508801  2.181995
H    -5.416929  -1.571948  0.239712
H    -6.566363  -0.307239  -0.009606
H    -5.832108  1.938881  0.396241
N    -0.943985  1.774741  5.927981
C    -0.070887  2.384917  6.927434
H    -1.879463  2.155957  5.821489
H    -0.685610  2.770188  7.746372
H    0.502600  3.215115  6.493501
H    0.618412  1.630801  7.317942
Sr    2.090073  -0.156248  3.549884
