36
Energy: -108381.939385 eV PBE+vdW (tier 2 basis)
C    -0.342161  1.169106  -0.468809
C    0.043455  1.078388  0.975246
O    1.122195  1.611656  1.381207
H    -0.455150  2.229773  -0.732894
H    -1.272692  0.643151  -0.706036
H    0.467339  0.769204  -1.092537
N    -0.782388  0.439169  1.810310
C    -0.671330  0.335782  3.281554
C    0.332931  -0.781983  3.658309
O    1.594495  -0.411843  3.581717
H    -1.604088  0.009590  1.392760
H    -0.229379  1.284067  3.626331
C    -2.090723  0.201784  3.845824
C    -2.175264  0.343094  5.375472
C    -3.474236  -0.227549  6.004986
N    -3.244747  -1.426097  6.835129
C    -2.547063  -2.487860  6.405339
N    -1.859554  -3.248034  7.268073
N    -2.498212  -2.807794  5.094869
H    -2.492768  -0.766315  3.517690
H    -2.717519  0.975357  3.377323
H    -2.095515  1.406617  5.638225
H    -1.314961  -0.150318  5.848516
H    -4.231134  -0.440981  5.234828
H    -3.935056  0.505158  6.675368
H    -3.473348  -1.362123  7.822575
H    -1.604227  -4.190903  6.996349
H    -1.714178  -2.974251  8.232798
H    -3.264315  -2.421149  4.551251
N    -0.078270  -1.964226  3.970307
C    0.949559  -2.972494  4.232596
H    -1.565090  -2.664797  4.604318
H    0.467940  -3.925848  4.477972
H    1.605226  -2.682265  5.067659
H    1.589873  -3.136052  3.353113
Sr    2.953984  1.026405  2.628998
