36
Energy: -108382.61181 eV PBE+vdW (tier 2 basis)
C    0.790557  -0.575792  2.835526
C    0.109240  -1.270972  1.699983
O    0.192562  -2.518288  1.553089
H    0.145710  -0.588050  3.728027
H    1.053031  0.462911  2.608421
H    1.696204  -1.138060  3.088642
N    -0.623255  -0.551046  0.803023
C    -1.519133  0.526063  1.187454
C    -2.742255  -0.095894  1.936655
O    -2.841289  -1.347669  2.086449
H    -0.942881  -1.102571  0.006260
H    -1.001991  1.140998  1.939707
C    -1.847219  1.464718  -0.002252
C    -2.186875  0.861509  -1.376522
C    -3.487976  0.056546  -1.513511
N    -3.418336  -1.302258  -0.974383
C    -2.837992  -2.394101  -1.545070
N    -2.516021  -2.326849  -2.855771
N    -2.571842  -3.442172  -0.768204
H    -0.962475  2.101264  -0.138409
H    -2.654076  2.149309  0.300344
H    -1.343722  0.265025  -1.759806
H    -2.257390  1.714176  -2.067603
H    -3.791790  0.029996  -2.570153
H    -4.316524  0.557993  -0.995873
H    -3.873782  -1.484020  -0.089890
H    -2.957173  -1.657192  -3.474816
H    -2.048256  -3.106541  -3.301268
H    -2.356647  -4.259872  -1.344841
N    -3.635927  0.751827  2.432647
C    -4.813557  0.388380  3.221985
H    -3.468346  1.745702  2.295153
H    -5.710987  0.828334  2.771795
H    -4.707699  0.765833  4.246530
H    -4.908571  -0.699200  3.244291
Sr    -1.963486  -3.549746  1.606776
