36
Energy: -108383.013638 eV PBE+vdW (tier 2 basis)
C    0.658229  0.113617  1.374766
C    -0.091810  -0.195964  2.634280
O    0.461836  -0.814908  3.577908
H    0.079393  0.688550  0.644560
H    0.975001  -0.831802  0.913481
H    1.571412  0.667960  1.627331
N    -1.376219  0.216916  2.707282
C    -2.346950  -0.054875  3.786904
C    -1.875290  0.602331  5.105352
O    -1.140898  -0.018730  5.919753
H    -1.740431  0.690422  1.886313
H    -3.266017  0.454715  3.470333
C    -2.653794  -1.550343  3.946254
C    -3.810120  -1.859052  4.920947
C    -3.692039  -3.225195  5.621867
N    -2.818699  -3.192255  6.805260
C    -1.473142  -3.241297  6.802385
N    -0.802512  -2.719668  7.930799
N    -0.669929  -3.603246  5.829635
H    -1.742101  -2.066161  4.257205
H    -2.895760  -1.943305  2.949116
H    -4.764323  -1.831647  4.376502
H    -3.886394  -1.088473  5.703753
H    -3.350861  -4.007232  4.928715
H    -4.676113  -3.550976  5.977699
H    -3.280979  -3.047184  7.697133
H    -0.179535  -3.403636  8.362296
H    -1.389659  -2.272432  8.632876
H    -1.135915  -4.121471  5.083472
N    -2.267526  1.849375  5.364273
C    -3.099749  2.736419  4.545552
H    -1.914001  2.226812  6.242274
H    -2.641983  2.924600  3.566763
H    -3.183874  3.694004  5.066651
H    -4.112086  2.333598  4.416457
Sr    0.705273  -1.535667  5.812383
