36
Energy: -108382.297794 eV PBE+vdW (tier 2 basis)
C    -0.114569  0.908514  -0.544837
C    0.417002  1.555719  0.698136
O    0.948984  2.707169  0.633935
H    -0.494999  -0.105300  -0.381823
H    0.666665  0.881567  -1.314550
H    -0.928488  1.533497  -0.938498
N    0.298020  0.888771  1.850719
C    0.539592  1.375227  3.225009
C    2.028775  1.293926  3.624174
O    2.845570  1.930851  2.814168
H    -0.127499  -0.031349  1.782073
H    0.311372  2.454605  3.200410
C    -0.496484  0.719247  4.159961
C    -0.599585  -0.824140  4.180467
C    0.142716  -1.577274  5.293274
N    -0.358869  -1.281623  6.637219
C    0.267415  -0.540693  7.566303
N    -0.197599  -0.559551  8.830285
N    1.316186  0.211087  7.239291
H    -1.472621  1.121097  3.854313
H    -0.331813  1.111377  5.171579
H    -0.248559  -1.274841  3.237425
H    -1.663729  -1.094639  4.236905
H    1.215399  -1.360321  5.265476
H    0.024317  -2.657585  5.132875
H    -1.237294  -1.710610  6.909172
H    0.155358  0.084211  9.526417
H    -0.825244  -1.285241  9.152668
H    1.615642  0.374627  6.234970
N    2.383024  0.701683  4.713423
C    3.810937  0.712907  5.035921
H    1.872997  0.624423  7.977125
H    3.990720  0.062459  5.900137
H    4.161540  1.725870  5.288671
H    4.424431  0.350671  4.199326
Sr    3.019501  3.466341  1.258986
