36
Energy: -108382.402299 eV PBE+vdW (tier 2 basis)
C    -0.474037  1.151194  -0.070358
C    -1.237891  0.108376  0.682021
O    -0.779147  -1.051414  0.841666
H    0.193558  1.695785  0.615925
H    -1.123423  1.877725  -0.570564
H    0.162799  0.651886  -0.808314
N    -2.454838  0.421217  1.217139
C    -2.705636  1.676559  1.911062
C    -1.697690  1.782706  3.095948
O    -1.070727  0.761247  3.488038
H    -2.947730  -0.376539  1.621965
H    -2.505529  2.505514  1.216264
C    -4.180064  1.805578  2.373215
C    -4.628104  1.047355  3.643964
C    -5.256815  -0.349582  3.486860
N    -4.400756  -1.381677  2.876218
C    -3.366956  -2.044369  3.461469
N    -2.908606  -1.608549  4.715903
N    -2.608888  -2.959032  2.912046
H    -4.817901  1.551061  1.513662
H    -4.358232  2.874515  2.550745
H    -5.409216  1.650331  4.128653
H    -3.804027  1.028764  4.375531
H    -6.145161  -0.280755  2.847176
H    -5.619090  -0.700315  4.465624
H    -4.731276  -1.785727  2.004136
H    -2.773394  -2.394278  5.352399
H    -3.435309  -0.864957  5.166751
H    -2.974980  -3.353110  2.042769
N    -1.550441  2.980656  3.651468
C    -0.673038  3.295180  4.779241
H    -2.071721  3.754694  3.246712
H    -1.249084  3.792936  5.567822
H    0.134447  3.962051  4.452855
H    -0.245352  2.368379  5.167405
Sr    -0.517843  -1.594771  3.170608
