36
Energy: -108382.153886 eV PBE+vdW (tier 2 basis)
C    0.763282  -1.563492  1.388782
C    0.226442  -0.457649  2.242647
O    0.421648  -0.480405  3.498413
H    0.586279  -1.417072  0.318424
H    0.289940  -2.504885  1.702003
H    1.840737  -1.674312  1.565174
N    -0.453323  0.525393  1.642181
C    -1.231718  1.646768  2.215103
C    -0.366365  2.724835  2.880955
O    0.343015  2.473120  3.922495
H    -0.527656  0.438980  0.632463
H    -1.663551  2.135810  1.331921
C    -2.402121  1.163848  3.094061
C    -3.260719  2.261340  3.748185
C    -3.774158  3.424020  2.867435
N    -4.198786  3.065961  1.520972
C    -3.622805  3.597169  0.392348
N    -4.392771  3.532485  -0.734147
N    -2.388941  4.046354  0.422917
H    -2.035567  0.495047  3.887660
H    -3.032651  0.538687  2.446552
H    -2.718011  2.722898  4.588835
H    -4.119356  1.747297  4.203042
H    -3.008417  4.197654  2.758086
H    -4.612975  3.899522  3.396105
H    -5.136674  2.696310  1.414943
H    -4.018400  3.901493  -1.599228
H    -5.403907  3.544912  -0.663843
H    -2.130939  4.498086  -0.454534
N    -0.468041  3.913589  2.342587
C    0.185409  5.109237  2.856507
H    -1.199063  4.015611  1.533065
H    1.138838  5.276256  2.337237
H    -0.464794  5.970156  2.667680
H    0.377210  5.018708  3.930503
Sr    1.029790  0.808593  5.255594
