36
Energy: -108381.432942 eV PBE+vdW (tier 2 basis)
C    -2.207163  -0.391675  0.758965
C    -1.350646  -0.092444  1.948707
O    -0.546198  -0.982804  2.385877
H    -2.796260  0.469182  0.428161
H    -2.879499  -1.225540  1.005845
H    -1.572610  -0.732942  -0.069172
N    -1.467654  1.109634  2.507455
C    -0.853559  1.636866  3.745135
C    0.660656  1.831814  3.588302
O    1.449446  0.828518  3.602152
H    -2.218186  1.730445  2.126179
H    -1.310608  2.627280  3.844482
C    -1.167647  0.865804  5.045199
C    -2.646649  0.614770  5.390340
C    -3.583755  1.836208  5.586195
N    -4.339110  2.213839  4.386601
C    -3.811704  2.962006  3.354107
N    -3.077770  4.085186  3.743228
N    -3.888686  2.693314  2.083463
H    -0.696624  1.437398  5.860740
H    -0.661156  -0.112838  5.039029
H    -2.640958  0.044629  6.330539
H    -3.099118  -0.057633  4.644847
H    -3.029109  2.706682  5.959650
H    -4.317325  1.590592  6.363881
H    -4.954981  1.475461  4.055702
H    -2.998772  4.735249  2.963014
H    -3.438908  4.551712  4.572925
H    -4.445749  1.848277  1.922132
N    1.177671  3.045509  3.468193
C    0.542507  4.362184  3.403477
H    2.196767  3.045987  3.395547
H    1.015016  5.019878  4.142292
H    -0.527452  4.298845  3.616857
H    0.686951  4.790288  2.403534
Sr    1.479415  -1.418017  3.244891
