36
Energy: -108382.920895 eV PBE+vdW (tier 2 basis)
C    0.569796  0.916182  -0.158021
C    -0.029528  0.569807  1.172176
O    0.590686  -0.166727  1.979486
H    -0.077991  1.532474  -0.789962
H    0.814099  -0.012011  -0.691162
H    1.517279  1.447001  0.006119
N    -1.246511  1.080602  1.450572
C    -2.094191  0.900049  2.648836
C    -1.418596  1.479437  3.915101
O    -0.534286  0.830356  4.534157
H    -1.642597  1.673460  0.728093
H    -2.982128  1.509123  2.431455
C    -2.567882  -0.537549  2.934332
C    -3.123964  -1.342719  1.740364
C    -2.341638  -2.637027  1.448125
N    -2.234953  -3.533179  2.600971
C    -1.215481  -3.543687  3.498011
N    -1.455229  -4.109741  4.710994
N    -0.028409  -2.983131  3.286013
H    -3.330348  -0.448039  3.720559
H    -1.747145  -1.094935  3.397144
H    -3.126185  -0.745953  0.816312
H    -4.175069  -1.597186  1.929721
H    -1.332578  -2.402276  1.084506
H    -2.830844  -3.192267  0.638134
H    -3.026826  -4.143404  2.777635
H    -0.666840  -4.526674  5.192293
H    -2.363821  -4.502208  4.929436
H    0.109603  -2.869787  2.277148
N    -1.837997  2.672467  4.325075
C    -1.334944  3.370563  5.508037
H    -2.551650  3.142135  3.775407
H    -2.157940  3.924551  5.970272
H    -0.539092  4.074333  5.231600
H    -0.941825  2.638674  6.218568
Sr    1.007455  -0.944449  4.149974
