36
Energy: -108379.577902 eV PBE+vdW (tier 2 basis)
C    -0.554543  0.352461  -0.606140
C    -0.296654  0.746233  0.809848
O    0.931690  0.974635  1.178404
H    -0.077017  1.076994  -1.278351
H    -1.618554  0.287683  -0.848232
H    -0.091732  -0.625730  -0.799230
N    -1.247327  0.872099  1.698693
C    -2.702625  0.714410  1.601677
C    -3.180750  1.529263  2.843967
O    -2.364763  1.719564  3.757487
H    -1.042919  1.185200  2.677285
H    -3.066067  1.175597  0.673134
C    -3.088695  -0.785327  1.686382
C    -4.586992  -1.107536  1.625758
C    -5.268617  -0.692869  0.317726
N    -6.682969  -0.994565  0.350306
C    -7.588144  -0.356956  -0.495399
N    -8.876020  -0.811013  -0.379539
N    -7.337566  0.587851  -1.350543
H    -2.672967  -1.182973  2.623418
H    -2.569664  -1.307993  0.867442
H    -5.118312  -0.658228  2.476588
H    -4.685430  -2.195955  1.755395
H    -4.754265  -1.168005  -0.541101
H    -5.179221  0.395435  0.163154
H    -6.925906  -1.945625  0.614693
H    -9.556807  -0.322616  -0.950452
H    -9.210814  -1.194344  0.496015
H    -6.338353  0.769698  -1.460519
N    -4.448192  1.958733  2.840864
C    -5.058519  2.687990  3.951297
H    -5.022759  1.775555  2.024504
H    -5.892018  2.112529  4.372227
H    -5.430262  3.659198  3.604205
H    -4.299665  2.842216  4.722448
Sr    2.969426  1.407499  1.794131
