36
Energy: -108382.290707 eV PBE+vdW (tier 2 basis)
C    -1.554225  2.582317  2.441672
C    -1.479127  1.274568  3.167883
O    -1.082662  1.230075  4.369192
H    -2.239048  3.247017  2.985409
H    -1.896480  2.488742  1.405838
H    -0.566663  3.061189  2.451591
N    -1.844041  0.166140  2.504159
C    -1.969234  -1.176246  3.087877
C    -0.779290  -1.456024  4.010603
O    0.395425  -1.083990  3.617664
H    -2.172705  0.288745  1.550528
H    -2.883158  -1.182497  3.700102
C    -2.155714  -2.248252  1.994841
C    -0.962245  -2.555137  1.074519
C    0.090366  -3.531764  1.615805
N    -0.451727  -4.869596  1.894292
C    -0.395372  -5.546580  3.048718
N    -0.585224  -6.876778  3.035877
N    -0.165298  -4.934737  4.219089
H    -3.014375  -1.938223  1.379925
H    -2.493792  -3.168466  2.495896
H    -0.427476  -1.633528  0.802740
H    -1.355771  -2.957207  0.129124
H    0.569701  -3.148823  2.521740
H    0.889708  -3.645561  0.869592
H    -0.786948  -5.394388  1.090929
H    -0.785488  -7.390042  3.885586
H    -0.511446  -7.413780  2.180244
H    0.070836  -5.486455  5.034395
N    -0.907762  -1.943972  5.234047
C    -2.219630  -2.293179  5.788564
H    -0.237929  -3.925766  4.353180
H    -2.890316  -1.422711  5.881325
H    -2.076398  -2.705980  6.792951
H    -2.746092  -3.058025  5.197334
Sr    0.548576  0.089443  5.626108
