36
Energy: -108382.534795 eV PBE+vdW (tier 2 basis)
C    -1.625133  -0.771597  -0.863691
C    -1.023328  -0.803585  0.505434
O    0.140072  -1.241843  0.697685
H    -1.343593  0.160278  -1.378833
H    -2.717569  -0.848703  -0.853516
H    -1.202098  -1.597662  -1.445789
N    -1.738528  -0.341988  1.571116
C    -2.525075  0.880862  1.526641
C    -1.547030  2.080125  1.369905
O    -0.297608  1.912095  1.521981
H    -1.282031  -0.514254  2.467374
H    -3.127243  0.860803  0.606311
C    -3.531449  0.967112  2.708624
C    -3.108821  0.517072  4.118418
C    -2.099194  1.384558  4.885226
N    -0.707094  1.203998  4.478348
C    0.135287  0.193372  4.822850
N    -0.192927  -0.571597  5.887829
N    1.211355  -0.015887  4.065870
H    -4.385656  0.341379  2.416792
H    -3.920382  1.992912  2.763177
H    -2.769033  -0.530917  4.116723
H    -4.036345  0.503319  4.709653
H    -2.201798  1.194627  5.962763
H    -2.328613  2.452229  4.765889
H    -0.327614  1.858930  3.806629
H    0.403416  -1.344924  6.154884
H    -0.841096  -0.243846  6.593826
H    1.864171  -0.638708  4.548614
N    -2.018936  3.277343  1.036411
C    -3.390815  3.690544  0.730802
H    -1.303114  3.999619  0.956283
H    -3.994098  2.842628  0.393770
H    -3.356378  4.428236  -0.077714
H    -3.868520  4.151793  1.604642
Sr    1.584626  0.395553  1.683438
