36
Energy: -108380.92579 eV PBE+vdW (tier 2 basis)
C    0.416643  -0.143054  0.042569
C    0.099119  -0.189375  1.501866
O    0.996617  -0.511209  2.338664
H    -0.417582  0.197599  -0.579026
H    0.713118  -1.151284  -0.280907
H    1.282619  0.511400  -0.121581
N    -1.150145  0.113996  1.885781
C    -1.773161  0.004437  3.226102
C    -1.217095  1.050042  4.211213
O    -0.066240  0.911128  4.727867
H    -1.787519  0.357962  1.132551
H    -2.828859  0.247679  3.046226
C    -1.724039  -1.415603  3.818986
C    -2.521694  -1.582624  5.116791
C    -4.054473  -1.521962  4.934488
N    -4.727286  -2.134716  6.055749
C    -4.739674  -3.542199  6.171788
N    -5.424326  -3.965870  7.286210
N    -4.194915  -4.392778  5.370759
H    -0.678434  -1.726050  3.979335
H    -2.108656  -2.104623  3.051795
H    -2.210853  -0.853264  5.881730
H    -2.283354  -2.574839  5.523970
H    -4.325131  -2.000508  3.969791
H    -4.406344  -0.481758  4.874478
H    -5.589213  -1.684907  6.349875
H    -5.411050  -4.970254  7.426372
H    -5.365810  -3.410153  8.131745
H    -3.912796  -3.972279  4.482643
N    -2.002201  2.069341  4.522065
C    -1.673617  3.138821  5.465426
H    -2.909498  2.120666  4.065659
H    -2.546613  3.338864  6.095757
H    -1.407149  4.054079  4.921512
H    -0.833784  2.824820  6.089374
Sr    1.834197  -0.332654  4.431112
