36
Energy: -108381.046798 eV PBE+vdW (tier 2 basis)
C    0.724959  0.131460  0.733668
C    0.408106  -0.159617  2.160303
O    1.332950  -0.292573  3.024335
H    1.016740  -0.827614  0.273006
H    1.595962  0.790841  0.655425
H    -0.116131  0.532330  0.155109
N    -0.877952  -0.304362  2.561500
C    -1.940164  0.628236  2.171969
C    -1.513666  2.039107  2.647462
O    -0.639101  2.163970  3.581558
H    -0.971607  -0.679094  3.506984
H    -2.007619  0.644968  1.076660
C    -3.279423  0.146681  2.786813
C    -4.557294  0.886290  2.358775
C    -5.176492  0.453558  1.010046
N    -4.246211  0.281298  -0.103838
C    -3.394301  1.219313  -0.631053
N    -3.676613  2.563194  -0.263138
N    -2.332339  1.018410  -1.334623
H    -3.190423  0.203655  3.883991
H    -3.367034  -0.921557  2.535711
H    -4.396802  1.972707  2.378641
H    -5.322543  0.703821  3.126426
H    -5.982754  1.157156  0.747659
H    -5.670095  -0.518188  1.134054
H    -4.082782  -0.668001  -0.416062
H    -3.234860  3.171393  -0.955019
H    -4.674935  2.771389  -0.216248
H    -2.188208  0.027081  -1.548026
N    -2.061994  3.074158  2.058165
C    -1.791996  4.463559  2.421496
H    -2.707811  2.898489  1.241035
H    -2.544509  5.096756  1.943041
H    -0.798625  4.772895  2.070022
H    -1.848542  4.596752  3.507270
Sr    1.278048  1.425697  4.583234
