36
Energy: -108381.976782 eV PBE+vdW (tier 2 basis)
C    0.491686  0.478516  -0.206163
C    0.173476  1.012003  1.156892
O    1.127861  1.284311  1.978760
H    1.132050  1.191211  -0.743572
H    -0.403837  0.292592  -0.807302
H    1.048875  -0.463013  -0.106545
N    -1.089985  1.184418  1.478674
C    -1.670445  1.663574  2.730396
C    -3.182667  1.324762  2.543803
O    -3.597782  1.150696  1.396010
H    -1.857674  0.984760  0.806750
H    -1.240928  1.088310  3.565218
C    -1.428563  3.184273  2.897563
C    -1.727494  3.790925  4.273576
C    -0.966881  3.160369  5.453383
N    0.457945  2.927726  5.203400
C    1.450700  3.843154  5.127549
N    1.220204  5.074557  5.624402
N    2.604168  3.489260  4.544522
H    -2.024822  3.708713  2.137947
H    -0.375624  3.377940  2.647390
H    -2.801890  3.746396  4.503056
H    -1.486633  4.861822  4.214156
H    -1.377551  2.177435  5.719047
H    -1.101969  3.768315  6.360255
H    0.736343  1.978607  4.994032
H    1.920009  5.801048  5.542426
H    0.447393  5.258640  6.252768
H    3.340247  4.149563  4.810368
N    -3.947289  1.286083  3.648136
C    -5.384333  1.010371  3.605557
H    -3.500016  1.324583  4.556574
H    -5.893663  1.612871  4.364832
H    -5.586801  -0.052868  3.788408
H    -5.761028  1.276727  2.614290
Sr    3.126746  1.968724  2.751304
