36
Energy: -108382.744706 eV PBE+vdW (tier 2 basis)
C    -0.552243  2.005968  0.150595
C    -0.381713  1.335591  1.476455
O    0.692725  1.432925  2.125599
H    -1.548022  1.869782  -0.283933
H    0.200043  1.615619  -0.548133
H    -0.352128  3.079485  0.265461
N    -1.418150  0.619212  1.966880
C    -1.379584  -0.027285  3.281323
C    -0.520406  -1.316428  3.231167
O    0.673009  -1.234930  3.642491
H    -2.269161  0.566445  1.413963
H    -0.772066  0.636695  3.901226
C    -2.768715  -0.139846  3.937217
C    -3.324155  1.173571  4.525815
C    -2.776533  1.646205  5.887099
N    -1.396468  2.142120  5.856135
C    -0.257342  1.425327  6.014538
N    -0.352585  0.161428  6.525724
N    0.939884  1.843886  5.612980
H    -2.712297  -0.906529  4.724386
H    -3.495597  -0.522570  3.207072
H    -4.407066  1.040137  4.662489
H    -3.223955  1.992007  3.794681
H    -2.871696  0.855484  6.644294
H    -3.404427  2.469459  6.251286
H    -1.273695  3.050950  5.420693
H    0.493631  -0.184261  6.965044
H    -1.199270  -0.100121  7.017785
H    0.914554  2.847899  5.409730
N    -0.978281  -2.470355  2.753873
C    -2.285253  -2.806111  2.187094
H    -0.293155  -3.224807  2.791079
H    -2.161130  -3.690049  1.554409
H    -2.664042  -1.997191  1.554571
H    -3.016720  -3.040691  2.970235
Sr    2.140269  0.622660  3.822843
