36
Energy: -108382.039341 eV PBE+vdW (tier 2 basis)
C    -0.138592  -0.086246  0.449201
C    -0.353685  -0.253965  1.927853
O    0.661348  -0.765563  2.588492
H    0.774531  0.497835  0.274666
H    -0.973676  0.421855  -0.040173
H    0.020687  -1.067726  -0.018609
N    -1.498222  0.102230  2.447566
C    -1.731975  -0.073110  3.894289
C    -0.779627  0.808363  4.728794
O    0.281274  0.364945  5.268432
H    -2.963372  0.113048  1.158535
H    -2.727341  0.362772  4.082851
C    -1.778601  -1.548980  4.392226
C    -3.184058  -2.110003  4.691472
C    -4.024904  -2.568665  3.493852
N    -4.273504  -1.459524  2.566825
C    -4.182418  -1.485463  1.226667
N    -4.538074  -2.584608  0.546161
N    -3.709807  -0.386987  0.629437
H    -1.205508  -1.618175  5.329639
H    -1.271087  -2.188734  3.655902
H    -3.758020  -1.376841  5.282270
H    -3.082223  -2.986414  5.346965
H    -4.974619  -2.985270  3.860377
H    -3.505223  -3.361972  2.937832
H    -4.291027  -0.526782  2.963490
H    -4.324122  -2.678083  -0.439565
H    -5.187655  -3.252938  0.944850
H    -3.829575  -0.234694  -0.365394
N    -1.120376  2.085866  4.852755
C    -0.334967  3.098671  5.554046
H    -1.965913  2.390212  4.378897
H    -1.013188  3.858161  5.954453
H    0.378257  3.582138  4.872951
H    0.209409  2.629815  6.378518
Sr    1.892131  -1.004896  4.371221
