36
Energy: -108380.522387 eV PBE+vdW (tier 2 basis)
C    -1.502945  1.109976  -0.806984
C    -0.747175  0.956387  0.467696
O    0.381888  1.542118  0.606108
H    -2.598928  1.195043  -0.697674
H    -1.337929  0.233213  -1.456302
H    -1.108538  1.987709  -1.329235
N    -1.174507  0.203564  1.514954
C    -1.786360  -1.128519  1.439240
C    -0.695410  -2.108737  0.923862
O    0.456457  -1.686887  0.573567
H    -0.610000  0.356402  2.350346
H    -2.008825  -1.410669  2.480458
C    -3.103953  -1.124100  0.638348
C    -4.116782  -2.251924  0.848487
C    -5.435897  -1.924867  0.101917
N    -5.249842  -1.691338  -1.318272
C    -4.897306  -0.457479  -1.858973
N    -4.467312  -0.522946  -3.171964
N    -4.823018  0.678513  -1.239639
H    -2.883604  -1.057531  -0.432108
H    -3.589656  -0.180372  0.915744
H    -4.347030  -2.392253  1.916538
H    -3.745652  -3.212594  0.452840
H    -5.921695  -1.060421  0.583395
H    -6.130569  -2.764553  0.220866
H    -5.644244  -2.381878  -1.946390
H    -4.584299  0.344537  -3.685647
H    -4.675678  -1.356274  -3.710062
H    -5.285307  0.643764  -0.329019
N    -0.993576  -3.393779  0.878707
C    -0.078471  -4.449191  0.435917
H    -1.932215  -3.667372  1.161108
H    0.239105  -4.272275  -0.598231
H    -0.604229  -5.405710  0.490593
H    0.802876  -4.489205  1.086984
Sr    2.054315  -0.013419  0.399807
