36
Energy: -108380.63121 eV PBE+vdW (tier 2 basis)
C    -0.988375  -0.941380  -0.145202
C    -0.776024  -0.783193  1.314271
O    0.295046  -1.160131  1.895445
H    -1.108626  0.033053  -0.643174
H    -1.943888  -1.485297  -0.302371
H    -0.144576  -1.471868  -0.593096
N    -1.751003  -0.243165  2.086498
C    -2.521007  0.954554  1.758931
C    -1.533903  2.143623  1.824317
O    -0.428899  2.010488  2.460020
H    -1.611618  -0.385607  3.087509
H    -2.915238  0.866726  0.734993
C    -3.685556  1.043971  2.786110
C    -4.957389  1.835680  2.458491
C    -5.752145  1.412313  1.189777
N    -5.660782  0.003335  0.828451
C    -4.715846  -0.527038  -0.030815
N    -4.259512  0.367371  -1.022159
N    -4.184885  -1.701909  0.003724
H    -3.284939  1.412089  3.744203
H    -3.973879  -0.003692  2.953653
H    -4.761862  2.916253  2.409390
H    -5.605740  1.707598  3.337392
H    -5.425117  2.003768  0.328817
H    -6.807853  1.672422  1.342328
H    -6.072010  -0.663221  1.473675
H    -3.769086  -0.164446  -1.739614
H    -5.007609  0.907766  -1.455854
H    -4.502763  -2.254243  0.804329
N    -1.803335  3.292393  1.227496
C    -2.902216  3.630092  0.320162
H    -1.113094  4.025550  1.393801
H    -3.664278  4.225603  0.836131
H    -3.348414  2.719817  -0.092088
H    -2.493464  4.223243  -0.505232
Sr    1.342604  0.608450  2.965725
