36
Energy: -108383.036986 eV PBE+vdW (tier 2 basis)
C    0.398776  -0.851093  -0.144577
C    0.036622  -0.386815  1.229362
O    0.921158  -0.084044  2.074090
H    0.986572  -0.065246  -0.638443
H    -0.468994  -1.092897  -0.766918
H    1.046374  -1.734358  -0.069006
N    -1.272218  -0.286740  1.546372
C    -1.732117  0.265294  2.825607
C    -1.604490  -0.823212  3.921524
O    -0.573310  -0.843251  4.652687
H    -1.960029  -0.524377  0.836595
H    -0.988826  1.026143  3.094071
C    -3.104008  0.967468  2.718134
C    -3.191766  2.309031  3.470410
C    -2.937229  2.297681  4.988497
N    -1.541551  2.067936  5.375798
C    -0.484244  2.895129  5.157889
N    -0.748618  4.210770  4.979552
N    0.738493  2.371126  5.089337
H    -3.919427  0.306573  3.048042
H    -3.300621  1.178185  1.657061
H    -4.203483  2.708771  3.311921
H    -2.509596  3.032453  2.997885
H    -3.527870  1.515350  5.483350
H    -3.299966  3.242325  5.419365
H    -1.290559  1.148052  5.715837
H    -1.605899  4.621973  5.330011
H    0.008415  4.855139  4.788674
H    1.436244  3.115453  5.176687
N    -2.571134  -1.725590  4.037208
C    -2.563464  -2.857121  4.964985
H    -3.373130  -1.642223  3.418181
H    -3.512191  -2.887157  5.512427
H    -1.736655  -2.735755  5.668297
H    -2.439819  -3.796995  4.412326
Sr    1.565259  0.174260  4.331390
