36
Energy: -108380.943337 eV PBE+vdW (tier 2 basis)
C    0.971729  0.749966  0.453519
C    0.459825  0.259371  1.769037
O    1.245465  -0.311702  2.584617
H    0.217249  1.268589  -0.146675
H    1.349988  -0.111379  -0.115576
H    1.825088  1.420018  0.620676
N    -0.839885  0.440987  2.047298
C    -1.633923  -0.075657  3.184968
C    -1.282912  0.623759  4.509569
O    -0.191563  0.372560  5.108535
H    -1.375414  0.911916  1.323700
H    -2.667908  0.196086  2.933459
C    -1.589378  -1.609813  3.339310
C    -2.106994  -2.396649  2.133124
C    -3.622674  -2.236864  1.869980
N    -4.148543  -3.392380  1.185287
C    -4.344153  -4.592814  1.896589
N    -4.840029  -5.598785  1.102140
N    -4.106057  -4.798229  3.148388
H    -2.189363  -1.861592  4.228518
H    -0.560695  -1.940700  3.558719
H    -1.920191  -3.459331  2.338706
H    -1.537180  -2.154026  1.223997
H    -3.823756  -1.361972  1.235825
H    -4.146165  -2.053341  2.833259
H    -4.834922  -3.208294  0.460105
H    -4.942504  -6.490423  1.574335
H    -4.528242  -5.653473  0.139228
H    -3.951724  -3.927497  3.661490
N    -2.184186  1.449857  5.017084
C    -2.070091  2.159826  6.291716
H    -3.035555  1.604100  4.482251
H    -1.941519  3.234262  6.110395
H    -1.210432  1.774454  6.843821
H    -2.984616  2.001854  6.874413
Sr    1.786109  -0.719857  4.745769
