36
Energy: -108381.641723 eV PBE+vdW (tier 2 basis)
C    0.552093  0.214905  0.324201
C    0.733182  -0.469544  1.642519
O    1.533582  -1.448752  1.763437
H    0.671771  1.299969  0.427830
H    -0.462253  0.034775  -0.065359
H    1.283297  -0.169422  -0.391638
N    0.022901  -0.057272  2.717092
C    -1.428727  0.243257  2.661692
C    -2.136546  -0.875853  1.849440
O    -1.555418  -2.062824  1.895673
H    0.324031  -0.505105  3.580579
H    -1.754022  0.108066  3.705788
C    -1.779588  1.681958  2.253299
C    -3.078936  2.149973  2.921318
C    -3.643255  3.461527  2.378603
N    -3.852105  3.537864  0.913233
C    -4.724140  2.815252  0.181407
N    -5.336531  3.411719  -0.857837
N    -4.967726  1.532924  0.458980
H    -1.866785  1.749441  1.160275
H    -0.950903  2.338991  2.552681
H    -2.904781  2.313176  3.996008
H    -3.842261  1.363786  2.863077
H    -2.953925  4.285439  2.601604
H    -4.592119  3.686503  2.887576
H    -3.580201  4.421063  0.494010
H    -5.785285  2.868716  -1.585763
H    -5.435455  4.418893  -0.905117
H    -5.758822  1.093353  0.002433
N    -3.223330  -0.601032  1.215312
C    -3.889892  -1.712832  0.538609
H    -4.250027  0.885003  0.875584
H    -4.862788  -1.384125  0.155771
H    -3.301085  -2.075946  -0.318388
H    -4.060232  -2.564584  1.212596
Sr    0.211134  -3.384533  1.930360
