36
Energy: -108381.88192 eV PBE+vdW (tier 2 basis)
C    -0.142909  -0.460362  0.529279
C    -0.615665  -0.755944  1.915983
O    -0.046010  -1.686014  2.584283
H    -0.056749  -1.394612  -0.038538
H    0.871694  -0.040788  0.597530
H    -0.774514  0.244224  -0.017030
N    -1.602930  -0.083440  2.492073
C    -2.390868  1.070309  2.065682
C    -2.498243  1.901458  3.383771
O    -2.420725  1.281939  4.453776
H    -1.719988  -0.174701  3.520795
H    -1.867825  1.624154  1.275965
C    -3.826150  0.695562  1.628862
C    -4.021667  -0.289846  0.456219
C    -4.340306  -1.755746  0.813646
N    -3.180706  -2.663729  0.861026
C    -2.697001  -3.379669  1.888801
N    -2.989578  -2.985941  3.222769
N    -1.845908  -4.380312  1.823148
H    -4.319325  1.642259  1.368279
H    -4.368984  0.331226  2.516500
H    -3.177600  -0.256672  -0.248524
H    -4.883991  0.067753  -0.122003
H    -5.020520  -2.169786  0.056891
H    -4.880689  -1.820780  1.767334
H    -2.811697  -2.928925  -0.049471
H    -3.556463  -3.689187  3.701493
H    -3.433871  -2.072904  3.314360
H    -1.733327  -4.778535  0.889193
N    -2.717182  3.215542  3.258924
C    -2.913823  4.115898  4.394715
H    -2.730227  3.619638  2.327767
H    -2.141605  4.894179  4.396958
H    -2.842385  3.530677  5.315024
H    -3.902049  4.587788  4.337708
Sr    -0.341622  -3.684471  3.619676
