36
Energy: -108381.739271 eV PBE+vdW (tier 2 basis)
C    0.035688  -2.038115  0.957303
C    -0.145725  -0.763996  1.717738
O    0.860382  -0.037523  1.999789
H    -0.892389  -2.605122  0.831453
H    0.781131  -2.667631  1.459305
H    0.440203  -1.794274  -0.035628
N    -1.381852  -0.405191  2.076064
C    -1.811356  0.892631  2.635411
C    -1.550228  0.958017  4.156533
O    -0.332759  1.037810  4.554000
H    -2.134875  -1.038961  1.818516
H    -1.130287  1.651864  2.217779
C    -3.230169  1.226477  2.167904
C    -4.314801  0.141431  2.392149
C    -5.592925  0.699072  3.031624
N    -5.399451  1.091239  4.446634
C    -5.464634  2.465269  4.792604
N    -6.066003  2.695624  6.013106
N    -4.859553  3.302819  4.027800
H    -3.168890  1.467199  1.098334
H    -3.537301  2.163388  2.666804
H    -3.953883  -0.684973  3.029594
H    -4.593106  -0.317956  1.433071
H    -6.383270  -0.061262  2.989674
H    -5.940143  1.576733  2.471480
H    -5.914160  0.496046  5.090686
H    -6.138004  3.665605  6.302221
H    -6.881354  2.144078  6.265218
H    -5.005724  4.273222  4.311843
N    -2.547165  0.981389  5.005441
C    -2.376374  1.130078  6.449089
H    -3.540520  0.952500  4.675458
H    -3.357120  1.346024  6.882721
H    -1.692134  1.956984  6.669964
H    -1.977802  0.208872  6.893065
Sr    1.782972  1.063814  3.753612
