36
Energy: -108382.383383 eV PBE+vdW (tier 2 basis)
C    -1.216656  -2.557188  0.612850
C    -0.858200  -1.981306  1.943344
O    0.233170  -2.292823  2.515596
H    -0.668516  -3.491917  0.464791
H    -2.292245  -2.743646  0.511820
H    -0.922814  -1.854571  -0.181739
N    -1.678592  -1.120101  2.557380
C    -2.869604  -0.453721  2.030768
C    -2.507446  0.432678  0.805063
O    -1.364352  0.904377  0.661334
H    -1.364496  -0.830342  3.479862
H    -3.580858  -1.229843  1.708119
C    -3.561825  0.355462  3.158495
C    -3.018122  1.739031  3.568179
C    -1.637998  1.833388  4.236403
N    -0.563728  1.721310  3.246690
C    0.578973  1.046324  3.372957
N    1.278265  0.750682  2.151213
N    1.130134  0.515577  4.442000
H    -3.626372  -0.302154  4.040364
H    -4.602760  0.507180  2.842770
H    -3.741331  2.150652  4.285724
H    -3.045484  2.432308  2.711859
H    -1.509233  1.049189  5.001085
H    -1.552830  2.797739  4.757326
H    -0.828618  1.940877  2.282462
H    2.020404  1.436132  1.983643
H    0.629444  0.764536  1.351400
H    0.710177  0.804857  5.326424
N    -3.521679  0.663777  -0.037987
C    -3.436196  1.530117  -1.212377
H    -4.413402  0.211933  0.143984
H    -2.415114  1.911344  -1.290365
H    -4.134791  2.370038  -1.115243
H    -3.684304  0.962134  -2.116774
Sr    2.183219  -1.423941  3.379131
