36
Energy: -108381.902834 eV PBE+vdW (tier 2 basis)
C    -0.576704  0.841831  -0.484935
C    -0.595943  0.479578  0.967114
O    0.469223  0.028497  1.527720
H    0.218894  1.574025  -0.676401
H    -1.530638  1.251002  -0.831666
H    -0.344156  -0.056204  -1.073892
N    -1.716797  0.632411  1.638269
C    -2.019995  0.321830  3.033302
C    -3.529494  0.710742  3.131097
O    -4.005444  1.405457  2.225823
H    -2.557694  1.066944  1.204541
H    -1.895241  -0.759410  3.195312
C    -1.155783  1.091299  4.060398
C    -1.020347  2.604767  3.796943
C    0.417708  3.074486  3.569616
N    1.242816  2.934280  4.773672
C    2.536952  2.535989  4.835165
N    3.257834  3.008952  5.876928
N    3.061651  1.689795  3.939671
H    -0.157403  0.627165  4.097495
H    -1.581890  0.908201  5.053916
H    -1.452999  3.173708  4.631875
H    -1.607340  2.905623  2.918067
H    0.418104  4.129803  3.255284
H    0.896276  2.508402  2.761445
H    0.914999  3.468350  5.573739
H    4.150298  2.600776  6.124341
H    2.952169  3.802504  6.427633
H    4.080500  1.718878  4.052398
N    -4.246405  0.297042  4.190046
C    -3.865831  -0.592794  5.280148
H    -5.208136  0.631596  4.176534
H    -4.730010  -1.208567  5.551780
H    -3.546591  -0.036534  6.173067
H    -3.063989  -1.273280  4.973401
Sr    2.487645  -0.136452  2.469533
