36
Energy: -108381.076735 eV PBE+vdW (tier 2 basis)
C    -0.358900  0.450917  -0.185497
C    -0.278161  0.122523  1.244548
O    0.809757  -0.253919  1.807530
H    -1.061431  -0.322451  -0.645918
H    0.630228  0.417813  -0.648021
H    -0.830985  1.420666  -0.390613
N    -1.393215  0.150604  2.022248
C    -2.410892  1.184925  1.983178
C    -1.938955  2.320317  2.942314
O    -0.723143  2.363777  3.322110
H    -1.304049  -0.350114  2.906312
H    -2.391910  1.624275  0.975510
C    -3.819607  0.617867  2.246256
C    -4.179363  -0.529403  1.290566
C    -4.309609  -0.108104  -0.186184
N    -4.496724  -1.218072  -1.092918
C    -3.444359  -1.984322  -1.539469
N    -3.823954  -3.073931  -2.286508
N    -2.216704  -1.678683  -1.217181
H    -4.562678  1.424844  2.136056
H    -3.887738  0.273651  3.289950
H    -5.129892  -0.965712  1.627984
H    -3.424757  -1.324927  1.362262
H    -3.410889  0.424373  -0.527261
H    -5.157494  0.581730  -0.310582
H    -5.418112  -1.638123  -1.128254
H    -3.092534  -3.595955  -2.752933
H    -4.697597  -3.036944  -2.800568
H    -1.558017  -2.288440  -1.705440
N    -2.822363  3.230848  3.307737
C    -2.561057  4.400828  4.146955
H    -3.778124  3.101094  2.983522
H    -2.952700  5.295818  3.650422
H    -1.484768  4.506615  4.296374
H    -3.058577  4.283505  5.117672
Sr    1.369144  1.343389  3.361889
