36
Energy: -108381.673487 eV PBE+vdW (tier 2 basis)
C    -1.633095  -1.144808  0.306822
C    -1.652958  -1.087216  1.698241
O    -0.607578  -1.426064  2.401663
H    -2.438165  -0.783300  -0.329607
H    -2.591667  -3.455403  0.855541
H    -0.883529  -1.780010  -0.168301
N    -2.710578  -0.528547  2.431544
C    -3.415681  0.655258  1.956833
C    -2.505654  1.903586  2.185465
O    -1.258768  1.804378  2.002965
H    -2.446954  -0.478146  3.415769
H    -3.493920  0.580877  0.860261
C    -4.840210  0.736333  2.527164
C    -5.861795  -0.280756  1.976851
C    -5.774671  -1.747068  2.419002
N    -4.819908  -2.521638  1.618082
C    -4.303425  -3.708138  1.950018
N    -4.883337  -4.461969  2.895505
N    -3.184397  -4.126164  1.341180
H    -5.270459  1.719894  2.284153
H    -4.804260  0.676955  3.626522
H    -5.890718  -0.231843  0.875319
H    -6.852380  0.069954  2.296557
H    -6.776906  -2.190292  2.312560
H    -5.485613  -1.816462  3.478883
H    -4.420200  -2.077146  0.799142
H    -4.431186  -5.299137  3.242391
H    -5.848014  -4.315051  3.165745
H    -2.893096  -5.095231  1.373188
N    -3.044554  3.058312  2.554129
C    -2.275227  4.288746  2.751148
H    -4.045206  3.095776  2.713179
H    -2.962236  5.081657  3.057419
H    -1.778307  4.582469  1.818993
H    -1.518444  4.145591  3.531371
Sr    0.499768  0.337177  1.417634
