36
Energy: -108381.253924 eV PBE+vdW (tier 2 basis)
C    -1.156676  2.869344  1.780587
C    -0.966480  1.598938  2.543971
O    0.151232  0.995820  2.511735
H    -0.991397  2.667064  0.713041
H    -0.392939  3.595519  2.089017
H    -2.148963  3.313090  1.909836
N    -1.997813  1.121749  3.252032
C    -2.086725  -0.150781  4.003736
C    -1.099507  -0.142740  5.182830
O    0.083925  -0.603997  5.034429
H    -2.852480  1.673195  3.231739
H    -3.103580  -0.131191  4.421407
C    -1.965367  -1.399927  3.109865
C    -2.353745  -2.717799  3.813397
C    -3.821419  -3.157771  3.599719
N    -4.824590  -2.122114  3.819534
C    -4.942330  -1.366965  4.970274
N    -4.466395  -1.976092  6.124683
N    -5.357290  -0.138688  5.046559
H    -0.945038  -1.485295  2.702020
H    -2.604696  -1.229357  2.231284
H    -2.146253  -2.645039  4.890931
H    -1.718316  -3.532438  3.439065
H    -4.017660  -4.040461  4.228018
H    -3.956838  -3.499932  2.565735
H    -5.232201  -1.702422  2.993370
H    -4.821649  -1.513980  6.957577
H    -4.587216  -2.984176  6.175278
H    -5.669434  0.218033  4.138943
N    -1.461109  0.354150  6.352581
C    -2.712849  0.989022  6.774645
H    -0.723409  0.314456  7.058011
H    -2.960432  0.622933  7.776831
H    -3.551033  0.751811  6.104991
H    -2.573051  2.076901  6.827041
Sr    1.655540  -0.448007  3.404384
