36
Energy: -108381.849141 eV PBE+vdW (tier 2 basis)
C    -1.004945  0.940940  0.508354
C    -0.344021  0.491010  1.776812
O    0.877611  0.149837  1.759361
H    -2.045444  1.255122  0.640096
H    -0.972329  0.112215  -0.212619
H    -0.432388  1.767795  0.069416
N    -1.091729  0.463551  2.887535
C    -0.793331  -0.046268  4.250441
C    0.195590  0.842895  5.033027
O    1.427141  0.911457  4.584396
H    -2.042604  0.796726  2.762185
H    -1.752075  0.066698  4.766525
C    -0.419766  -1.543302  4.250941
C    -0.471165  -2.175404  5.652028
C    -1.898069  -2.457727  6.196347
N    -2.037568  -2.135444  7.624842
C    -1.937124  -0.871944  8.079943
N    -1.404758  -0.621963  9.282966
N    -2.351954  0.171944  7.337095
H    0.590529  -1.676697  3.839623
H    -1.094692  -2.074196  3.563033
H    0.055865  -1.519569  6.360486
H    0.094387  -3.115881  5.635807
H    -2.158502  -3.515947  6.087322
H    -2.662331  -1.912687  5.625276
H    -1.934481  -2.896462  8.289855
H    -1.611055  0.259684  9.739996
H    -0.916582  -1.331778  9.816563
H    -3.024339  -0.072904  6.616511
N    -0.252430  1.436436  6.090177
C    0.675321  2.280516  6.839541
H    -1.607981  0.858926  6.977864
H    0.165702  2.681771  7.721772
H    1.020198  3.131198  6.233222
H    1.567775  1.724805  7.166318
Sr    2.800791  0.603326  2.908431
