36
Energy: -108381.837423 eV PBE+vdW (tier 2 basis)
C    0.097600  -1.440442  -0.152757
C    -0.044021  -0.649364  1.111844
O    0.539042  0.493747  1.222321
H    -0.268204  -0.849821  -1.003746
H    -0.451033  -2.387086  -0.124237
H    1.160338  -1.657163  -0.327488
N    -0.767071  -1.159436  2.085493
C    -1.063455  -0.606685  3.408426
C    -1.717934  -1.824870  4.129593
O    -2.296894  -2.647819  3.415151
H    -1.287509  -2.047596  1.961823
H    -0.123392  -0.288073  3.880036
C    -2.069750  0.565638  3.273557
C    -2.309296  1.446327  4.503463
C    -1.073509  2.186402  5.046087
N    -0.217193  2.782357  4.017441
C    -0.460837  3.872529  3.255047
N    -1.461339  4.696264  3.623604
N    0.286476  4.064612  2.159184
H    -3.029413  0.141947  2.946241
H    -1.718444  1.200722  2.447776
H    -2.744839  0.867700  5.330317
H    -3.080518  2.178379  4.224521
H    -0.420811  1.509080  5.608136
H    -1.380603  2.948680  5.778160
H    0.666097  2.325189  3.837401
H    -1.712752  5.490141  3.048456
H    -1.860537  4.664720  4.554038
H    0.206368  5.038315  1.852952
N    -1.676870  -1.930692  5.471990
C    -0.893706  -1.188520  6.449486
H    -2.195328  -2.737832  5.814995
H    0.001476  -0.756264  5.988495
H    -0.552472  -1.880247  7.227501
H    -1.477934  -0.394292  6.935303
Sr    1.313180  2.521256  0.622524
