36
Energy: -108380.619195 eV PBE+vdW (tier 2 basis)
C    0.146302  0.045970  0.336011
C    0.354934  0.414263  1.767953
O    1.509140  0.722198  2.203244
H    0.002977  0.952376  -0.274060
H    -0.719205  -0.608200  0.189649
H    1.052715  -0.448116  -0.032325
N    -0.695474  0.452125  2.618808
C    -1.979077  1.066540  2.273393
C    -1.723901  2.559488  1.954432
O    -0.609712  3.104120  2.294449
H    -0.432868  0.567655  3.598498
H    -2.381069  0.582413  1.371245
C    -2.990517  0.888685  3.419457
C    -3.624624  -0.505661  3.450003
C    -4.887925  -0.582100  4.343696
N    -5.793527  0.558993  4.241348
C    -6.194062  1.162205  3.058665
N    -6.237732  0.314283  1.953373
N    -6.458600  2.417853  2.887105
H    -3.782921  1.636633  3.290762
H    -2.500280  1.139461  4.376057
H    -2.910282  -1.267625  3.794680
H    -3.904629  -0.773188  2.421376
H    -4.601819  -0.648763  5.400947
H    -5.406800  -1.527042  4.117916
H    -5.817322  1.175707  5.044022
H    -6.766966  0.742082  1.197132
H    -6.568552  -0.628582  2.145360
H    -6.341154  2.957157  3.749302
N    -2.650338  3.265317  1.335717
C    -3.957808  2.835246  0.825406
H    -2.426694  4.254562  1.221957
H    -4.177995  3.424294  -0.070434
H    -4.763670  2.986919  1.569860
H    -3.939353  1.774702  0.555485
Sr    1.633247  2.979886  2.742014
