36
Energy: -108380.450579 eV PBE+vdW (tier 2 basis)
C    -0.094769  0.309869  0.066619
C    -0.031359  -0.026239  1.519914
O    1.105979  -0.149489  2.081482
H    0.042315  -0.592526  -0.548376
H    0.751760  0.972743  -0.153050
H    -1.028835  0.796558  -0.220626
N    -1.138644  -0.158223  2.292936
C    -2.305123  -1.023477  2.039536
C    -1.872930  -2.474431  2.366490
O    -0.628256  -2.795252  2.352188
H    -0.893085  -0.135669  3.284066
H    -3.059589  -0.725828  2.783101
C    -2.978717  -0.931459  0.660926
C    -3.786661  0.355940  0.470571
C    -4.765516  0.291608  -0.729427
N    -5.462348  -0.979546  -0.900429
C    -6.057987  -1.714581  0.113697
N    -6.519040  -0.960305  1.190865
N    -6.156419  -3.003954  0.171269
H    -3.671831  -1.780842  0.604711
H    -2.256280  -1.102628  -0.148322
H    -3.137879  1.235222  0.339125
H    -4.362069  0.532948  1.389856
H    -4.226740  0.469417  -1.668846
H    -5.475140  1.128629  -0.633714
H    -5.177337  -1.535744  -1.696892
H    -7.148632  -1.511866  1.769140
H    -6.935392  -0.064842  0.945776
H    -5.734928  -3.459110  -0.643097
N    -2.787292  -3.375720  2.671321
C    -4.240800  -3.221894  2.810723
H    -2.420759  -4.316609  2.818447
H    -4.579946  -3.934690  3.568781
H    -4.774709  -3.419444  1.861167
H    -4.493781  -2.209432  3.141259
Sr    1.587545  -2.331923  2.676502
