36
Energy: -108381.866572 eV PBE+vdW (tier 2 basis)
C    0.389916  1.994290  0.860767
C    0.150631  0.583151  1.281460
O    1.128228  -0.248539  1.322169
H    -0.506671  2.618369  0.903328
H    0.806937  2.020282  -0.154519
H    1.152874  2.422888  1.525829
N    -1.043826  0.147284  1.643855
C    -2.387377  0.650090  1.393950
C    -3.274707  -0.412163  2.112889
O    -2.794147  -1.533311  2.339688
H    -1.136136  -0.818895  2.013665
H    -2.532850  1.629814  1.870544
C    -2.727091  0.750743  -0.127457
C    -1.948336  -0.152002  -1.102814
C    -1.997674  -1.669927  -0.854635
N    -1.589050  -2.456460  -2.015700
C    -0.333427  -2.666914  -2.472044
N    -0.229421  -3.109360  -3.747313
N    0.748794  -2.462321  -1.710060
H    -2.566038  1.787726  -0.450980
H    -3.805724  0.569324  -0.240388
H    -0.897644  0.167261  -1.171991
H    -2.370877  0.037132  -2.100467
H    -3.017171  -1.992521  -0.607295
H    -1.398243  -1.966696  0.018300
H    -2.341461  -2.765637  -2.620900
H    0.629978  -3.521782  -4.086889
H    -1.029374  -3.161548  -4.366379
H    1.561208  -2.524851  -2.334189
N    -4.523498  -0.035110  2.410421
C    -5.506441  -0.906870  3.051541
H    -4.794399  0.926529  2.228347
H    -5.809848  -0.485884  4.017492
H    -5.047948  -1.885736  3.212991
H    -6.391476  -1.016147  2.413298
Sr    1.693054  -2.274823  0.505107
