36
Energy: -108380.189997 eV PBE+vdW (tier 2 basis)
C    -1.784223  -0.133013  -0.614076
C    -1.221815  0.278504  0.717684
O    0.062454  0.668103  0.668968
H    -1.628207  0.674623  -1.341339
H    -2.851253  -0.370668  -0.573303
H    -1.247485  -1.015542  -0.988388
N    -1.813437  0.302498  1.856561
C    -3.203996  -0.086767  2.059203
C    -3.727153  0.917856  3.090403
O    -2.811399  1.613391  3.724463
H    -1.961809  1.313634  3.256934
H    -3.818768  0.015385  1.154764
C    -3.293368  -1.540238  2.622291
C    -3.432200  -2.662881  1.579559
C    -4.846857  -2.970996  1.055075
N    -5.458817  -1.930474  0.229690
C    -6.159150  -0.865454  0.739522
N    -6.437788  0.142565  -0.147874
N    -6.465269  -0.688789  1.999420
H    -4.120264  -1.604545  3.342117
H    -2.375386  -1.698232  3.206276
H    -3.078030  -3.591798  2.051390
H    -2.756473  -2.490145  0.728685
H    -5.510639  -3.233061  1.894775
H    -4.796217  -3.874406  0.434889
H    -5.596716  -2.154278  -0.749607
H    -7.228615  0.730453  0.091234
H    -6.293235  -0.007266  -1.138953
H    -6.354382  -1.549545  2.536765
N    -4.987310  1.074597  3.338513
C    -5.505868  2.002698  4.343338
H    -5.690857  0.431968  2.780380
H    -6.596640  2.004238  4.270077
H    -5.125281  3.015968  4.167743
H    -5.212056  1.686990  5.352413
Sr    2.067079  1.251455  0.793875
