36
Energy: -108382.039222 eV PBE+vdW (tier 2 basis)
C    0.191480  1.536108  0.243568
C    0.072864  0.332531  1.130419
O    1.018744  -0.534635  1.154935
H    -0.624951  2.251507  0.383804
H    0.185729  1.204373  -0.804382
H    1.149286  2.042576  0.419427
N    -1.023881  0.204409  1.851023
C    -1.448970  -0.885527  2.727984
C    -2.876305  -0.430672  3.159627
O    -3.194396  0.745776  2.950561
H    -1.755484  0.943888  1.863561
H    -1.500232  -1.815562  2.141972
C    -0.499103  -1.104251  3.924047
C    -0.382000  0.073427  4.906948
C    0.942081  0.086074  5.684645
N    2.065544  0.619878  4.889574
C    2.874774  -0.069632  4.074558
N    3.674031  0.675300  3.151290
N    2.987524  -1.366858  3.913695
H    0.481133  -1.343088  3.497000
H    -0.820564  -2.005799  4.463129
H    -1.205804  0.041966  5.633625
H    -0.485928  1.035534  4.383221
H    1.207007  -0.912291  6.060814
H    0.861525  0.730083  6.568227
H    2.229347  1.618784  4.974532
H    3.427053  1.662748  3.074954
H    4.668046  0.601065  3.383526
H    2.525764  -1.919100  4.637416
N    -3.690497  -1.315565  3.759837
C    -3.493598  -2.740206  4.000698
H    -4.585681  -0.915199  4.034211
H    -2.830126  -3.180464  3.247988
H    -4.460409  -3.248010  3.919097
H    -3.087158  -2.936206  5.003057
Sr    3.087748  -1.395495  1.460040
