36
Energy: -108381.977502 eV PBE+vdW (tier 2 basis)
C    1.206464  -0.099180  1.642069
C    0.273120  0.397668  2.710462
O    0.820766  0.604249  3.886527
H    0.721677  -0.176290  0.665227
H    1.614709  -1.078495  1.927737
H    2.060588  0.585164  1.554285
N    -0.987839  0.583703  2.419262
C    -1.900722  1.059177  3.478085
C    -1.474809  2.444924  4.002013
O    -0.918703  2.608502  5.135972
H    -1.596219  -0.444835  0.883597
H    -2.862102  1.251076  2.974529
C    -2.181603  0.041331  4.622727
C    -3.549830  -0.669361  4.565429
C    -3.687543  -1.852887  3.600603
N    -3.438477  -1.437101  2.216261
C    -2.693162  -2.077209  1.300081
N    -2.670118  -3.417227  1.263848
N    -1.978795  -1.318786  0.462572
H    -2.149781  0.581134  5.581072
H    -1.373683  -0.704772  4.643435
H    -4.341129  0.068955  4.354079
H    -3.786105  -1.061112  5.564843
H    -4.695624  -2.281628  3.699292
H    -2.963719  -2.641675  3.850645
H    -3.639252  -0.470440  1.986008
H    -1.995361  -3.910696  0.691676
H    -3.435455  -3.958984  1.649009
H    -1.583864  -1.701077  -0.388932
N    -1.696518  3.504650  3.231460
C    -2.315172  3.540487  1.905400
H    -1.417585  4.395368  3.640138
H    -1.999232  2.672833  1.317883
H    -1.974992  4.445570  1.393100
H    -3.410487  3.577038  1.979799
Sr    0.961623  1.512176  5.868113
