36
Energy: -108381.678442 eV PBE+vdW (tier 2 basis)
C    0.270852  -3.209193  -0.108932
C    0.692742  -1.958776  0.585642
O    1.889713  -1.741242  0.902614
H    -0.805254  -3.265805  -0.297083
H    0.614931  -4.094157  0.440315
H    0.789657  -3.223912  -1.080145
N    -0.221908  -0.991360  0.919536
C    -1.571213  -1.188454  1.472606
C    -1.537290  -2.490433  2.299722
O    -0.534693  -2.640667  3.059092
H    0.149718  -0.032444  0.957210
H    -1.601909  -0.480686  2.312558
C    -2.727519  -0.752813  0.545624
C    -3.443049  0.526194  1.041272
C    -2.606687  1.812273  1.257990
N    -1.776714  1.791384  2.484579
C    -0.438966  1.575022  2.571120
N    0.327553  1.876763  1.457694
N    0.180256  0.983449  3.582583
H    -3.490530  -1.536370  0.423061
H    -2.316156  -0.595361  -0.460371
H    -4.218686  0.785076  0.306624
H    -3.992127  0.306386  1.971993
H    -3.292716  2.665539  1.332249
H    -1.964922  2.003992  0.389302
H    -2.295092  1.607883  3.340098
H    -0.049730  2.569153  0.815450
H    1.298749  2.074394  1.687519
H    -0.450124  0.889369  4.385529
N    -2.554811  -3.334552  2.257649
C    -2.685409  -4.537240  3.081943
H    -3.304148  -3.133196  1.600672
H    -2.711391  -5.425581  2.439543
H    -3.614333  -4.487687  3.661895
H    -1.830123  -4.598227  3.758451
Sr    1.452100  -1.227090  3.253926
