36
Energy: -108382.663532 eV PBE+vdW (tier 2 basis)
C    -0.358169  -0.649038  0.282551
C    -0.605566  -1.111947  1.686813
O    0.088898  -2.028906  2.191090
H    -0.437096  -1.509883  -0.394277
H    0.672418  -0.277078  0.206261
H    -1.044501  0.135051  -0.053535
N    -1.598088  -0.505572  2.370120
C    -2.085517  -0.770941  3.740180
C    -0.964116  -0.485709  4.772103
O    -0.098461  -1.363212  5.040552
H    -2.104835  0.211975  1.861577
H    -2.878954  -0.028636  3.879021
C    -2.685023  -2.169764  4.001295
C    -3.434129  -2.843106  2.848167
C    -3.824691  -4.307547  3.178565
N    -2.778945  -5.059236  3.892839
C    -1.490630  -5.160955  3.470135
N    -1.253925  -5.089737  2.123085
N    -0.431507  -5.232842  4.268709
H    -3.345980  -2.065169  4.875951
H    -1.875116  -2.828325  4.332883
H    -2.808999  -2.826896  1.945317
H    -4.355879  -2.300406  2.594291
H    -4.120908  -4.836384  2.260879
H    -4.704981  -4.335220  3.831173
H    -2.886301  -5.079019  4.901578
H    -0.426400  -5.590625  1.815536
H    -2.042447  -5.196510  1.493284
H    -0.705167  -5.448741  5.231667
N    -0.933262  0.701159  5.372378
C    -1.837064  1.842903  5.197772
H    -0.173973  0.811311  6.043621
H    -1.850489  2.187304  4.156713
H    -1.463445  2.663354  5.816553
H    -2.854911  1.605402  5.531384
Sr    0.996656  -3.210980  3.989835
