36
Energy: -108381.905764 eV PBE+vdW (tier 2 basis)
C    -1.266980  0.648175  0.360914
C    -0.843273  0.083428  1.681494
O    0.372408  -0.232964  1.871107
H    -1.089741  -0.112272  -0.413155
H    -0.637950  1.510842  0.107705
H    -2.319476  0.948011  0.327465
N    -1.782882  -0.073783  2.622705
C    -1.733913  -0.762423  3.929443
C    -0.905420  -0.047344  5.010948
O    0.295240  0.351137  4.778398
H    -2.707780  0.246181  2.351161
H    -2.767055  -0.713021  4.288376
C    -1.360071  -2.259896  3.831464
C    -2.452797  -3.159174  3.229261
C    -3.780570  -3.247146  4.016050
N    -3.630275  -3.615779  5.416818
C    -3.384395  -2.720702  6.423378
N    -2.711336  -3.198366  7.511558
N    -3.677168  -1.437818  6.390218
H    -1.125781  -2.605403  4.849193
H    -0.437015  -2.376956  3.245674
H    -2.029802  -4.170289  3.138454
H    -2.691250  -2.844706  2.200791
H    -4.423004  -3.995314  3.535172
H    -4.343843  -2.305686  3.952070
H    -3.575908  -4.605774  5.631123
H    -2.889453  -2.731677  8.393591
H    -2.454781  -4.176355  7.569510
H    -4.399963  -1.233373  5.698660
N    -1.475820  0.059714  6.182974
C    -0.806690  0.629746  7.346583
H    -2.443201  -0.459766  6.339363
H    -1.551396  0.759206  8.137083
H    -0.366259  1.603697  7.104064
H    -0.012562  -0.036655  7.711323
Sr    2.021315  0.220699  3.367860
