36
Energy: -108381.545206 eV PBE+vdW (tier 2 basis)
C    -1.028694  0.775708  1.526529
C    -1.129004  0.079972  2.730885
O    -0.223017  0.245527  3.656037
H    -1.668555  0.611700  0.666394
H    -0.383514  1.656365  1.508020
H    -2.658591  2.179465  2.072512
N    -2.070254  -0.920669  3.017901
C    -2.528075  -1.950226  2.092504
C    -1.342799  -2.791727  1.537209
O    -0.151238  -2.375913  1.603013
H    -1.860991  -1.290075  3.943719
H    -3.107793  -2.646355  2.720218
C    -3.503112  -1.465064  0.992599
C    -4.857188  -0.990758  1.546384
C    -4.922869  0.414257  2.153193
N    -4.978141  1.470043  1.123233
C    -4.465684  2.708834  1.235858
N    -5.071861  3.730253  0.610328
N    -3.354806  2.925161  1.948741
H    -3.692777  -2.303663  0.310821
H    -3.038053  -0.692183  0.368698
H    -5.196625  -1.690946  2.324832
H    -5.611710  -1.067957  0.748154
H    -4.067755  0.600690  2.808744
H    -5.830289  0.496093  2.770706
H    -5.726604  1.373210  0.441322
H    -6.042222  3.675217  0.324095
H    -4.594094  4.610029  0.454269
H    -3.070830  3.871754  2.171033
N    -1.580309  -3.999234  1.023787
C    -2.834138  -4.743259  0.917397
H    -0.744334  -4.472382  0.682666
H    -2.614888  -5.808630  1.042823
H    -3.304019  -4.598001  -0.064215
H    -3.536401  -4.449005  1.703602
Sr    1.309788  -0.627744  2.190487
