36
Energy: -108381.977943 eV PBE+vdW (tier 2 basis)
C    -0.016714  0.341940  -0.059491
C    -0.163255  0.329337  1.431097
O    0.842249  0.560545  2.170612
H    0.319669  1.341620  -0.367449
H    -0.942295  0.099036  -0.591595
H    0.767331  -0.365001  -0.359074
N    -1.374539  0.084976  1.943562
C    -1.778276  0.146300  3.365158
C    -1.384927  -1.171520  4.079133
O    -0.108138  -1.237742  4.396758
H    -2.111904  -0.130584  1.277725
H    -1.171626  0.944220  3.821928
C    -3.259913  0.542469  3.415648
C    -3.734232  0.934892  4.820955
C    -5.256947  1.110654  4.988756
N    -6.107885  0.054025  4.401507
C    -5.793789  -1.244328  4.304051
N    -6.340127  -2.001858  3.339251
N    -4.905525  -1.830090  5.132898
H    -3.844944  -0.299753  3.019050
H    -3.415021  1.388978  2.729126
H    -3.297287  1.905482  5.099700
H    -3.343881  0.218627  5.554626
H    -5.577407  2.036729  4.494577
H    -5.493117  1.231713  6.056351
H    -6.963265  0.367623  3.952250
H    -6.351944  -3.008898  3.456032
H    -6.889529  -1.604821  2.586409
H    -4.736313  -1.324583  5.996833
N    -2.253518  -2.103339  4.280210
C    -1.761649  -3.340609  4.891178
H    -3.996931  -2.143099  4.689664
H    -2.611236  -3.979836  5.156523
H    -1.165445  -3.151228  5.795773
H    -1.127804  -3.901072  4.187536
Sr    1.880434  -0.420317  3.970147
