36
Energy: -108381.421691 eV PBE+vdW (tier 2 basis)
C    -0.340338  -0.753230  0.031905
C    -0.322410  -0.502541  1.505664
O    0.737027  -0.089574  2.074303
H    0.479569  -1.429754  -0.240364
H    -0.151196  0.200151  -0.482481
H    -1.287138  -1.167928  -0.329027
N    -1.448646  -0.709482  2.197609
C    -1.728064  -0.345225  3.605635
C    -1.151486  -1.452208  4.516763
O    0.126447  -1.530496  4.615766
H    -2.247776  -1.054765  1.670066
H    -1.143786  0.563219  3.823474
C    -3.231093  -0.018971  3.685693
C    -3.759695  0.763945  4.900829
C    -3.811822  0.044819  6.255694
N    -4.352768  -1.305064  6.102515
C    -4.458978  -2.232294  7.185793
N    -3.902561  -1.800740  8.378699
N    -4.927561  -3.382522  6.879514
H    -3.811753  -0.943658  3.537654
H    -3.441559  0.605159  2.804647
H    -4.779822  1.078125  4.634392
H    -3.192513  1.698104  5.025119
H    -4.400600  0.674926  6.944910
H    -2.804272  -0.042694  6.690757
H    -5.201757  -1.365494  5.541081
H    -4.031231  -2.436968  9.159826
H    -4.042428  -0.830420  8.647521
H    -5.048880  -3.997507  7.687247
N    -1.953864  -2.296217  5.115332
C    -1.494626  -3.408031  5.947814
H    -2.978508  -2.050989  5.214018
H    -2.270132  -4.179166  5.933754
H    -1.353124  -3.071601  6.984420
H    -0.552076  -3.805373  5.561595
Sr    2.059667  -0.674173  3.827129
