36
Energy: -108381.993013 eV PBE+vdW (tier 2 basis)
C    0.277908  1.672663  1.241143
C    0.100131  0.342704  1.909828
O    1.126334  -0.271145  2.386197
H    -0.671102  2.124428  0.936004
H    0.904159  1.542582  0.347435
H    0.802566  2.364602  1.913342
N    -1.115783  -0.153736  1.982886
C    -1.601124  -1.422496  2.527021
C    -3.133794  -1.328601  2.244624
O    -3.595629  -0.224226  1.933197
H    -1.944247  0.395661  1.665490
H    -1.157523  -2.251052  1.954491
C    -1.282071  -1.618485  4.024494
C    -1.731198  -0.474888  4.945940
C    -0.885380  -0.386793  6.220767
N    0.502187  -0.070878  5.865671
C    1.637694  -0.519979  6.448134
N    1.553972  -1.036299  7.690356
N    2.776735  -0.471357  5.742343
H    -0.194768  -1.756151  4.111794
H    -1.730426  -2.565300  4.352804
H    -2.785029  -0.590432  5.231171
H    -1.676473  0.494167  4.424505
H    -0.890878  -1.348729  6.753137
H    -1.299657  0.376442  6.896372
H    0.635735  0.597214  5.114937
H    2.351689  -1.495189  8.112382
H    0.775161  -0.821217  8.301952
H    3.582384  -0.538465  6.370137
N    -3.891864  -2.430874  2.367164
C    -3.492912  -3.808090  2.632121
H    -4.880769  -2.257370  2.196846
H    -2.465436  -3.992746  2.300025
H    -4.145152  -4.479821  2.063801
H    -3.581112  -4.063845  3.697516
Sr    3.092214  -0.752370  3.369106
