36
Energy: -108381.981964 eV PBE+vdW (tier 2 basis)
C    -1.454604  1.256046  -0.415140
C    -1.235420  1.258948  1.071527
O    -0.900648  2.236851  1.718719
H    -2.393551  1.784930  -0.631425
H    -1.507487  0.251507  -0.851091
H    -0.650535  1.823971  -0.896261
N    -1.423746  0.021409  1.725115
C    -1.463227  0.033311  3.172880
C    -0.341732  -0.782257  3.802898
O    -0.350354  -1.006115  5.059072
H    -1.914234  -0.707968  1.215522
H    -1.181376  1.085965  3.404056
C    -2.866901  -0.186502  3.776252
C    -3.553960  -1.545491  3.566764
C    -3.129092  -2.719024  4.449867
N    -3.451383  -2.461725  5.902778
C    -3.207649  -3.598351  6.755621
N    -4.179455  -4.514714  6.872343
N    -2.045988  -3.583099  7.349665
H    -3.501454  0.589336  3.326788
H    -2.848836  0.079472  4.847257
H    -3.434421  -1.876313  2.523552
H    -4.640440  -1.402141  3.680732
H    -2.053299  -2.925520  4.384075
H    -3.651057  -3.626343  4.108674
H    -4.435054  -2.181572  5.965680
H    -4.087449  -5.307307  7.500970
H    -5.011562  -4.491150  6.293469
H    -1.829735  -4.423588  7.889276
N    0.647764  -1.167104  3.019541
C    1.880607  -1.822927  3.437392
H    0.533572  -0.900497  2.039622
H    2.726392  -1.131198  3.335008
H    2.062352  -2.701166  2.807745
H    1.792014  -2.133239  4.481275
Sr    -1.335120  -1.244345  7.083498
