36
Energy: -108380.785207 eV PBE+vdW (tier 2 basis)
C    -0.552518  -0.868571  -0.021176
C    -1.074514  -1.261830  1.321643
O    -0.512777  -2.181797  1.997018
H    0.244481  -0.115107  0.084990
H    -1.329937  -0.456515  -0.672828
H    -0.101973  -1.749650  -0.491998
N    -2.141533  -0.624168  1.850455
C    -2.314692  0.827735  1.804189
C    -1.147364  1.463836  2.605372
O    -0.387983  0.717360  3.328160
H    -2.509390  -1.057537  2.698554
H    -2.238432  1.165188  0.760140
C    -3.699619  1.230126  2.349790
C    -3.975912  0.828897  3.805146
C    -5.167619  1.604599  4.414061
N    -4.921638  3.036070  4.495969
C    -5.274616  3.941007  3.496429
N    -6.577443  3.825671  3.064666
N    -4.366796  4.758334  3.059793
H    -4.455080  0.796370  1.679428
H    -3.790928  2.319472  2.252899
H    -3.091584  1.031551  4.436217
H    -4.192849  -0.249822  3.894608
H    -5.374980  1.205933  5.417075
H    -6.069626  1.438434  3.811614
H    -4.036398  3.303738  4.917965
H    -7.280897  3.597180  3.760905
H    -6.888436  4.497835  2.372421
H    -4.769948  5.515086  2.500352
N    -0.931985  2.762122  2.543541
C    -1.637484  3.787815  1.766894
H    -0.178151  3.093890  3.145891
H    -2.519530  4.178098  2.324591
H    -1.961659  3.381913  0.802314
H    -0.932786  4.603719  1.579257
Sr    0.535970  -1.303208  3.871857
