36
Energy: -108381.439276 eV PBE+vdW (tier 2 basis)
C    0.135493  0.331385  0.014916
C    0.046819  0.234774  1.501957
O    1.099217  0.282368  2.216910
H    0.583502  1.300235  -0.247694
H    -0.835178  0.241321  -0.483006
H    0.811834  -0.446147  -0.363527
N    -1.156183  0.109050  2.071094
C    -1.428738  0.158049  3.519152
C    -1.006376  -1.177669  4.177187
O    0.169138  -1.213293  4.691454
H    -1.974221  0.094685  1.464262
H    -0.716001  0.879357  3.950110
C    -2.849995  0.679827  3.734305
C    -3.361809  0.656784  5.179935
C    -4.894092  0.835302  5.245976
N    -5.670158  -0.386132  5.048655
C    -6.171966  -0.788224  3.822196
N    -7.330464  -1.530468  3.916235
N    -5.506009  -0.538960  2.733367
H    -3.581126  0.147673  3.097157
H    -2.851588  1.719414  3.370892
H    -2.888011  1.461506  5.762702
H    -3.109684  -0.285982  5.688861
H    -5.210935  1.592130  4.512108
H    -5.156452  1.221614  6.238534
H    -6.191323  -0.704901  5.856352
H    -7.733028  -1.866860  3.049614
H    -8.017712  -1.281673  4.620229
H    -6.054636  -0.776763  1.904901
N    -1.745397  -2.270560  4.210833
C    -3.091926  -2.560748  3.713831
H    -1.284064  -3.043307  4.694668
H    -3.051064  -3.488345  3.131205
H    -3.500602  -1.758220  3.094474
H    -3.770146  -2.702465  4.564846
Sr    2.192000  -0.348440  4.104537
