36
Energy: -108380.885696 eV PBE+vdW (tier 2 basis)
C    -0.855701  -0.154242  -2.429856
C    -0.004136  -0.237211  -1.204608
O    1.245689  -0.460740  -1.327580
H    -1.251188  -1.145893  -2.698188
H    -0.218956  0.175593  -3.258774
H    -1.696673  0.533794  -2.311133
N    -0.497022  -0.042246  0.041858
C    -1.660957  -0.695455  0.666472
C    -1.248944  -2.146123  1.003138
O    -0.245381  -2.699174  0.421316
H    0.252993  0.115518  0.716631
H    -1.805664  -0.182069  1.639624
C    -3.007553  -0.591147  -0.078982
C    -3.618809  0.824016  0.000921
C    -4.899540  0.939482  0.881365
N    -4.958266  0.016156  2.006100
C    -3.967734  -0.112776  2.941005
N    -3.948961  -1.366347  3.605605
N    -2.972737  0.680300  3.159875
H    -3.685154  -1.308344  0.402929
H    -2.914430  -0.937059  -1.113769
H    -3.894865  1.176782  -1.001553
H    -2.857439  1.529993  0.358825
H    -5.784007  0.720281  0.271969
H    -5.006367  1.983918  1.212437
H    -5.784896  -0.564528  2.080246
H    -3.530798  -1.261807  4.530718
H    -4.856788  -1.823796  3.683387
H    -3.096054  1.583616  2.697318
N    -1.936758  -2.771232  1.933808
C    -1.671458  -4.145727  2.354903
H    -2.681709  -2.259021  2.463529
H    -2.464695  -4.450457  3.042937
H    -0.707488  -4.217232  2.875523
H    -1.666747  -4.821535  1.492208
Sr    1.812145  -2.563953  -0.553737
