36
Energy: -108382.390178 eV PBE+vdW (tier 2 basis)
C    -0.724123  1.906081  0.955156
C    -0.720385  0.589968  1.663904
O    0.166663  0.297282  2.506096
H    -1.042378  2.702413  1.643872
H    -1.362164  1.922282  0.066271
H    0.309096  2.137720  0.667068
N    -1.702512  -0.321259  1.406417
C    -3.110429  0.022571  1.249074
C    -3.508884  0.987718  2.393013
O    -2.853447  0.963255  3.474637
H    -1.517750  -1.251159  1.781668
H    -3.267377  0.492352  0.268701
C    -4.010430  -1.239651  1.371972
C    -3.469477  -2.559525  0.769816
C    -2.988299  -3.621384  1.776232
N    -1.652860  -3.406833  2.372424
C    -1.404031  -2.825222  3.573542
N    -0.048303  -2.654558  3.940232
N    -2.246122  -2.247410  4.388442
H    -4.964590  -0.990307  0.892173
H    -4.250812  -1.393973  2.433880
H    -2.689046  -2.371871  0.017857
H    -4.290477  -3.034792  0.216191
H    -2.932135  -4.589662  1.264491
H    -3.725056  -3.752705  2.582242
H    -0.907178  -3.976848  1.982223
H    0.170620  -3.123756  4.820363
H    0.645764  -2.884803  3.230038
H    -3.226237  -2.461783  4.201415
N    -4.549748  1.799662  2.246222
C    -5.446902  1.960204  1.100466
H    -4.771937  2.348059  3.077269
H    -4.946983  1.685668  0.167147
H    -5.740946  3.012543  1.032050
H    -6.350482  1.349188  1.222809
Sr    -0.996308  -0.080069  4.611872
