36
Energy: -108382.276424 eV PBE+vdW (tier 2 basis)
C    -0.701947  0.037918  -0.151310
C    -1.602891  -0.151091  1.025826
O    -1.498932  -1.163842  1.774342
H    0.292748  0.367800  0.184332
H    -1.087679  0.754948  -0.882698
H    -0.561332  -0.937670  -0.632919
N    -2.545325  0.779624  1.328960
C    -2.339716  2.219487  1.227177
C    -1.003876  2.557601  1.937572
O    -0.580311  1.786116  2.849260
H    -3.243753  0.448010  2.007066
H    -2.311376  2.518264  0.170360
C    -3.457974  3.001701  1.976433
C    -4.898650  2.464740  1.817478
C    -5.670366  2.334027  3.157511
N    -4.883355  1.783338  4.275003
C    -4.201198  0.613977  4.259125
N    -4.585552  -0.314810  3.311975
N    -3.139200  0.335250  4.998830
H    -3.401619  4.047699  1.651623
H    -3.186553  3.002659  3.041961
H    -4.894960  1.499771  1.293871
H    -5.485321  3.130166  1.171425
H    -6.588007  1.746140  3.005434
H    -6.007299  3.318972  3.500528
H    -4.581784  2.451867  4.975125
H    -4.340637  -1.272527  3.549332
H    -5.537307  -0.242895  2.960279
H    -3.008237  1.051577  5.719794
N    -0.338852  3.661662  1.620471
C    -0.665301  4.688307  0.629135
H    0.492710  3.827400  2.187923
H    -1.306124  4.284273  -0.159445
H    0.264164  5.038528  0.168412
H    -1.167039  5.541573  1.103425
Sr    -0.959502  -0.320756  3.952929
