36
Energy: -108381.446241 eV PBE+vdW (tier 2 basis)
C    -0.592344  -0.080290  1.228682
C    -0.272512  0.006488  2.681304
O    0.871388  -0.350671  3.118503
H    -1.282358  0.708074  0.907906
H    -1.099324  -1.048878  1.071743
H    0.323038  -0.047308  0.631658
N    -1.232950  0.425719  3.509577
C    -1.231359  0.321421  4.982082
C    -0.234486  1.334044  5.575873
O    0.986250  1.025978  5.758093
H    -2.171500  0.543983  3.082929
H    -2.238128  0.647567  5.264947
C    -1.033842  -1.117842  5.543398
C    -2.228717  -1.652967  6.362929
C    -3.393994  -2.256806  5.559337
N    -3.962071  -1.348219  4.572661
C    -3.596865  -1.359385  3.237529
N    -3.980858  -0.185839  2.548481
N    -2.829223  -2.181731  2.615628
H    -0.156346  -1.117354  6.209173
H    -0.814627  -1.799744  4.710311
H    -2.605980  -0.851339  7.018252
H    -1.861856  -2.438216  7.039786
H    -4.186950  -2.555222  6.256659
H    -3.070747  -3.185847  5.066780
H    -4.843298  -0.908211  4.814687
H    -4.063413  -0.364474  1.548140
H    -4.818926  0.275775  2.897912
H    -2.614150  -3.014979  3.165611
N    -0.660224  2.546667  5.899334
C    -2.007973  3.107754  5.756278
H    0.056099  3.157883  6.291113
H    -2.355987  3.039846  4.719122
H    -1.961748  4.164900  6.031564
H    -2.718569  2.611032  6.428505
Sr    2.469729  -0.356495  4.685631
