36
Energy: -108382.189379 eV PBE+vdW (tier 2 basis)
C    -0.102440  -0.209608  2.232259
C    -1.197249  0.378943  3.093810
O    -0.893428  1.422962  3.789077
H    -0.381127  -0.230825  1.171652
H    0.125469  -1.243710  2.528727
H    0.803806  0.391751  2.344453
N    -2.427951  -0.112889  3.269760
C    -2.774245  -1.514487  3.023711
C    -2.078005  -2.339123  4.144718
O    -1.890073  -1.775751  5.261047
H    -3.586802  3.584430  -1.318375
H    -3.842086  -1.593495  3.303271
C    -2.703325  -2.078496  1.589124
C    -3.662645  -1.409145  0.586896
C    -3.252021  -0.016973  0.096138
N    -4.170581  0.412463  -0.967930
C    -4.278062  1.654088  -1.457879
N    -5.244685  1.943759  -2.341511
N    -3.439223  2.617759  -1.054733
H    -3.019925  -3.132690  1.626172
H    -1.678295  -2.078351  1.195951
H    -4.672436  -1.354000  1.022561
H    -3.733375  -2.073851  -0.288961
H    -2.221080  -0.047138  -0.294818
H    -3.293414  0.709196  0.919768
H    -4.681430  -0.318623  -1.454069
H    -5.233887  2.806052  -2.872751
H    -6.000689  1.297197  -2.530452
H    -2.585176  2.398344  -0.559310
N    -1.735367  -3.606099  3.931723
C    -1.157509  -4.496148  4.938466
H    -1.904739  -3.994752  3.009891
H    -0.982304  -3.926074  5.853399
H    -0.208557  -4.904719  4.572216
H    -1.846839  -5.322739  5.149675
Sr    -2.122541  0.597659  5.595644
