36
Energy: -108382.181141 eV PBE+vdW (tier 2 basis)
C    -2.052040  -0.331548  0.758625
C    -1.306298  0.021732  2.013882
O    -0.000636  -0.083541  1.952050
H    -3.128677  -0.170074  0.856925
H    -1.857761  -1.378814  0.489138
H    -1.680365  0.282886  -0.072238
N    -1.982328  0.396826  3.069235
C    -1.258261  0.709186  4.315002
C    -0.192999  1.802726  4.129982
O    1.057706  1.556944  4.137614
H    -3.512430  -0.391564  3.315123
H    -2.008929  1.175749  4.972349
C    -0.739306  -0.560719  5.035054
C    -1.569879  -0.947151  6.269301
C    -3.077902  -1.121373  6.065930
N    -3.459726  -2.243670  5.195068
C    -4.289893  -2.155261  4.135366
N    -5.036642  -3.227370  3.811998
N    -4.355505  -1.033148  3.419241
H    0.296343  -0.407976  5.373843
H    -0.729653  -1.391139  4.314594
H    -1.449375  -0.175857  7.045984
H    -1.153552  -1.867394  6.706044
H    -3.540584  -0.217815  5.651644
H    -3.546569  -1.284486  7.047608
H    -3.338711  -3.174343  5.583840
H    -5.497621  -3.290265  2.912539
H    -5.257715  -3.943298  4.493846
H    -5.114564  -0.928603  2.755596
N    -0.605439  3.055202  3.965873
C    -1.981815  3.553742  3.941146
H    0.140994  3.744491  3.888739
H    -1.998958  4.485178  3.366952
H    -2.343080  3.765335  4.956610
H    -2.637382  2.830468  3.446769
Sr    2.060775  0.132022  2.650499
