36
Energy: -108380.871985 eV PBE+vdW (tier 2 basis)
C    -1.461098  0.570790  -0.250626
C    -0.335960  0.244900  0.679208
O    0.867954  0.320398  0.274320
H    -2.239462  -0.202644  -0.261674
H    -1.072401  0.718456  -1.261797
H    -1.943535  1.505007  0.071902
N    -0.565996  -0.123561  1.962301
C    -1.597222  -1.090364  2.370231
C    -1.367921  -2.403209  1.556933
O    -0.333177  -2.508309  0.797671
H    0.291215  -0.163180  2.512318
H    -1.337770  -1.341397  3.410113
C    -3.055377  -0.549593  2.361168
C    -3.754982  -0.503133  3.731857
C    -3.817797  -1.814670  4.522190
N    -4.248443  -2.928066  3.672040
C    -4.296981  -4.276785  4.157406
N    -4.084753  -4.433130  5.504047
N    -4.430188  -5.176813  3.250856
H    -3.655006  -1.128142  1.646431
H    -3.035684  0.476846  1.978331
H    -4.776714  -0.134784  3.555395
H    -3.276342  0.252676  4.371546
H    -4.476249  -1.646118  5.392250
H    -2.829441  -2.075607  4.932185
H    -5.100156  -2.736254  3.143966
H    -4.134482  -5.378792  5.867454
H    -4.415595  -3.724734  6.150824
H    -4.564896  -6.113092  3.640356
N    -2.229209  -3.375317  1.697365
C    -2.130968  -4.664746  1.011519
H    -3.037732  -3.238759  2.370603
H    -1.233375  -5.205979  1.337574
H    -2.089653  -4.518198  -0.074801
H    -3.021711  -5.235474  1.290679
Sr    1.598979  -1.832133  -0.184685
