36
Energy: -108380.832511 eV PBE+vdW (tier 2 basis)
C    -0.768834  1.355356  0.339249
C    -0.439248  0.872486  1.714262
O    0.525764  0.070069  1.893552
H    -1.591707  2.076779  0.311092
H    -1.034312  0.487370  -0.281122
H    0.124922  1.807029  -0.110984
N    -1.192967  1.311416  2.734939
C    -1.176212  0.888102  4.154970
C    0.112143  1.347245  4.861828
O    1.193420  0.695063  4.715661
H    -1.947113  1.942600  2.478488
H    -2.016815  1.429948  4.602888
C    -1.438282  -0.614112  4.360625
C    -1.625092  -1.028158  5.824336
C    -2.952460  -0.552341  6.457354
N    -3.293837  -1.366688  7.599535
C    -3.787417  -2.673442  7.396316
N    -4.063837  -3.315900  8.579519
N    -3.979432  -3.263498  6.265829
H    -0.632660  -1.212323  3.903268
H    -2.340074  -0.869409  3.783573
H    -0.777939  -0.706059  6.450213
H    -1.630472  -2.126331  5.855683
H    -3.748773  -0.560268  5.683474
H    -2.874535  0.485699  6.811036
H    -3.716725  -0.875408  8.381426
H    -4.375014  -4.275013  8.470794
H    -3.464068  -3.142868  9.377949
H    -3.948651  -2.616404  5.474922
N    0.086247  2.414366  5.645561
C    -1.039099  3.307697  5.948333
H    0.976649  2.628284  6.095831
H    -1.462678  3.738528  5.033921
H    -0.658280  4.128410  6.562238
H    -1.817711  2.787384  6.519349
Sr    2.119238  -0.798136  3.249943
