36
Energy: -108381.021053 eV PBE+vdW (tier 2 basis)
C    -0.823555  -0.251629  0.024442
C    -0.623089  -0.315379  1.503491
O    0.491190  -0.693832  1.981170
H    -1.782921  0.185911  -0.269839
H    -0.767171  -1.275314  -0.374819
H    -0.005444  0.316274  -0.435843
N    -1.649044  0.025705  2.294436
C    -1.804104  -0.150465  3.757168
C    -0.947438  0.836175  4.563910
O    0.318461  0.724478  4.606409
H    -2.498283  0.295320  1.805620
H    -2.858212  0.101177  3.936682
C    -1.611685  -1.602526  4.246852
C    -2.455331  -2.610737  3.468406
C    -2.426871  -4.033100  4.068176
N    -3.153763  -4.996621  3.254061
C    -4.518218  -4.760277  2.979664
N    -5.290257  -4.646214  4.131214
N    -4.877500  -4.636280  1.752968
H    -1.885247  -1.613889  5.313920
H    -0.548135  -1.893943  4.204440
H    -2.118584  -2.668046  2.422029
H    -3.504301  -2.274851  3.436759
H    -2.849147  -4.012764  5.082748
H    -1.390712  -4.392454  4.164312
H    -2.693361  -5.190657  2.365736
H    -6.290856  -4.590893  3.970001
H    -5.054939  -5.296550  4.877288
H    -5.896043  -4.636959  1.642110
N    -1.586774  1.765051  5.258803
C    -0.963185  2.747726  6.145458
H    -2.599145  1.805843  5.169574
H    -1.516356  2.779670  7.090595
H    -0.989009  3.741957  5.681591
H    0.072632  2.457984  6.334761
Sr    2.031491  -0.406328  3.606670
