36
Energy: -108383.108853 eV PBE+vdW (tier 2 basis)
C    1.357182  -0.815097  1.322783
C    0.679236  0.353591  1.975105
O    1.363161  1.276078  2.485908
H    0.667043  -1.548413  0.893100
H    1.987807  -1.314197  2.071056
H    2.026776  -0.447901  0.534294
N    -0.669239  0.348601  1.976567
C    -1.667939  1.261767  2.582796
C    -1.587357  2.703129  2.049921
O    -0.601364  3.458319  2.254113
H    -1.082916  -0.462922  1.527700
H    -2.615307  0.858402  2.200024
C    -1.807496  1.133931  4.121972
C    -0.706009  1.612426  5.086101
C    -0.847765  3.071096  5.561067
N    0.056061  3.412928  6.645749
C    1.276933  3.990700  6.520968
N    1.880250  4.353253  7.678415
N    1.835156  4.179946  5.327824
H    -1.974881  0.061859  4.297210
H    -2.760143  1.619754  4.389026
H    0.296703  1.417032  4.683152
H    -0.773792  0.979891  5.982997
H    -1.871773  3.229169  5.929670
H    -0.712507  3.802406  4.752804
H    -0.244454  3.169079  7.582433
H    1.385510  4.377238  8.561294
H    2.832535  4.692811  7.682592
H    2.671328  4.756491  5.461796
N    -2.656787  3.139389  1.387524
C    -2.787245  4.497001  0.857619
H    -3.421810  2.493661  1.219512
H    -3.833245  4.667025  0.589187
H    -2.161693  4.626263  -0.034754
H    -2.483766  5.225667  1.616843
Sr    1.641860  3.541633  2.968317
