36
Energy: -108381.756033 eV PBE+vdW (tier 2 basis)
C    -0.502380  1.668162  0.335554
C    -0.369249  0.901501  1.609338
O    0.707565  0.948437  2.291708
H    -1.481981  1.546563  -0.138039
H    0.276040  1.338465  -0.366267
H    -0.330120  2.734723  0.532287
N    -1.387613  0.152982  2.036492
C    -1.276509  -0.714909  3.214749
C    -2.333101  -1.838727  3.285395
O    -1.973540  -2.922555  3.726777
H    -2.193301  0.047969  1.423863
H    -0.331908  -1.269467  3.106645
C    -1.231109  0.093154  4.537544
C    -0.303922  -0.550952  5.571773
C    0.051552  0.401835  6.721755
N    1.095463  -0.093499  7.601149
C    2.420816  0.113466  7.416871
N    3.228783  -0.173909  8.460238
N    2.885453  0.580052  6.251552
H    -2.243929  0.196998  4.952011
H    -0.899104  1.120105  4.316421
H    0.628518  -0.907433  5.080702
H    -0.739905  -1.482056  5.960478
H    -0.839232  0.594864  7.334053
H    0.368416  1.386120  6.336951
H    0.806835  -0.581445  8.441514
H    4.233482  -0.211058  8.347922
H    2.867586  -0.360111  9.388152
H    3.859941  0.863016  6.399806
N    -3.592781  -1.545230  2.870813
C    -4.668647  -2.536909  2.943329
H    -3.870230  -0.575648  2.753671
H    -4.248330  -3.524668  2.733031
H    -5.429257  -2.295417  2.194575
H    -5.129375  -2.557750  3.939982
Sr    2.353920  0.737962  3.877784
