36
Energy: -108382.56912 eV PBE+vdW (tier 2 basis)
C    -0.835029  1.548391  0.256658
C    -1.017383  0.115054  0.642397
O    -0.077884  -0.556530  1.148765
H    -1.459468  1.841484  -0.594424
H    0.221222  1.714699  0.020202
H    -1.082355  2.202288  1.107816
N    -2.229487  -0.485022  0.486956
C    -3.512631  0.170680  0.685937
C    -3.533514  0.795806  2.107601
O    -2.762302  0.349754  3.003853
H    -2.239444  -1.518103  0.547713
H    -3.657382  0.967503  -0.059745
C    -4.656848  -0.858167  0.534628
C    -4.665238  -2.015330  1.561335
C    -4.153092  -3.373996  1.080126
N    -2.734854  -3.431107  0.604417
C    -1.786330  -4.077085  1.397236
N    -1.148123  -5.122770  0.836436
N    -1.542521  -3.610789  2.608880
H    -4.620377  -1.244598  -0.494901
H    -5.602338  -0.305442  0.604643
H    -5.704474  -2.192204  1.872751
H    -4.147136  -1.728032  2.488687
H    -4.771383  -3.717574  0.240232
H    -4.278415  -4.105610  1.888840
H    -2.676889  -3.720640  -0.369745
H    -1.520422  -5.608310  0.027925
H    -0.333135  -5.536388  1.275843
H    -1.034420  -4.315814  3.153101
N    -4.401659  1.774354  2.324320
C    -4.627068  2.444416  3.605351
H    -4.965367  2.085006  1.536255
H    -5.655438  2.267901  3.943079
H    -4.468423  3.523015  3.490333
H    -3.926554  2.047093  4.342882
Sr    -1.003743  -1.259128  3.251459
