36
Energy: -108382.331191 eV PBE+vdW (tier 2 basis)
C    -2.306707  -0.373083  1.199562
C    -1.408001  -0.319205  2.403959
O    -0.123130  -0.385383  2.149490
H    -2.073594  0.465385  0.529412
H    -3.365409  -0.323909  1.466677
H    -2.112715  -1.294059  0.633367
N    -1.952707  -0.215160  3.586735
C    -1.161799  -0.225272  4.827876
C    -0.142851  0.919081  4.951082
O    1.050887  0.845361  4.524050
H    -3.566094  -0.858503  3.853269
H    -1.898373  -0.013036  5.619551
C    -0.540884  -1.601882  5.162119
C    -1.507349  -2.767442  4.905374
C    -2.803825  -2.701378  5.741464
N    -3.984977  -3.224482  5.056440
C    -4.853932  -2.482398  4.347517
N    -6.049982  -3.018133  4.037563
N    -4.553430  -1.237677  3.971381
H    -0.207379  -1.591161  6.211119
H    0.361978  -1.774106  4.558023
H    -0.987551  -3.713659  5.105653
H    -1.774404  -2.782637  3.840514
H    -3.042598  -1.671328  6.034937
H    -2.693936  -3.266260  6.675261
H    -4.180407  -4.216754  5.133268
H    -6.648498  -2.594458  3.340164
H    -6.417310  -3.818291  4.537711
H    -5.305308  -0.654599  3.621663
N    -0.571874  2.024942  5.550408
C    0.231796  3.228123  5.752833
H    -1.538303  2.042737  5.861645
H    -0.179057  3.787938  6.597858
H    0.212818  3.867263  4.859917
H    1.265535  2.946070  5.974433
Sr    1.968830  0.033769  2.588499
