36
Energy: -108381.072895 eV PBE+vdW (tier 2 basis)
C    -0.019217  0.062471  0.620197
C    -0.278666  -0.014111  2.080623
O    0.657405  -0.268637  2.909972
H    0.916463  0.598286  0.420118
H    -0.855598  0.475333  0.033444
H    0.147862  -0.974088  0.279967
N    -1.529691  0.165483  2.569230
C    -2.407351  1.264164  2.162208
C    -1.748193  2.577948  2.631000
O    -0.754245  2.550875  3.442254
H    -1.620033  -0.099591  3.551959
H    -2.460985  1.292376  1.050374
C    -3.810144  1.080743  2.792122
C    -4.536938  -0.237392  2.466269
C    -5.165225  -0.353287  1.069323
N    -4.176917  -0.304571  -0.007238
C    -3.960497  0.782701  -0.828282
N    -5.094847  1.353763  -1.352284
N    -2.732716  1.202543  -0.982626
H    -4.441000  1.929037  2.494870
H    -3.703287  1.161472  3.887085
H    -5.344866  -0.354728  3.203414
H    -3.864918  -1.094960  2.633099
H    -5.884528  0.460097  0.906588
H    -5.731713  -1.294329  1.018999
H    -3.329574  -0.841261  0.146909
H    -4.970192  2.115569  -2.009006
H    -5.876815  0.742786  -1.568482
H    -2.637296  1.842017  -1.775943
N    -2.197115  3.741566  2.193699
C    -3.256802  4.004253  1.215998
H    -1.734984  4.556106  2.597486
H    -2.977169  4.895138  0.644267
H    -4.212146  4.196658  1.720289
H    -3.350832  3.161281  0.523193
Sr    1.090402  1.502359  4.319862
