36
Energy: -108382.883008 eV PBE+vdW (tier 2 basis)
C    0.565732  -0.721766  1.096264
C    -0.437599  -0.226751  2.088719
O    -0.245127  0.835904  2.736840
H    0.753047  0.067616  0.356249
H    1.518228  -0.907308  1.610748
H    0.255475  -1.634954  0.577907
N    -1.564843  -0.949685  2.268452
C    -2.645287  -0.544125  3.172913
C    -2.278900  -0.893950  4.634074
O    -1.660742  -0.033476  5.319773
H    -1.667554  -1.812948  1.741450
H    -2.629810  0.547945  3.156123
C    -4.027126  -1.016961  2.688845
C    -4.619725  -0.206912  1.517982
C    -5.234045  1.168691  1.850611
N    -4.263134  2.207694  2.214253
C    -3.771208  2.489666  3.445418
N    -4.405084  1.957362  4.536383
N    -2.649480  3.171016  3.656057
H    -4.720154  -0.981429  3.542274
H    -3.974638  -2.077168  2.389511
H    -5.428179  -0.803997  1.072218
H    -3.871806  -0.085605  0.718197
H    -5.994494  1.077694  2.638922
H    -5.776396  1.533523  0.969008
H    -3.718566  2.577954  1.441410
H    -4.268245  2.479823  5.395418
H    -5.354680  1.620488  4.421831
H    -2.357443  3.647399  2.796993
N    -2.603731  -2.091352  5.106955
C    -2.288376  -2.582111  6.448823
H    -3.113485  -2.720947  4.492951
H    -1.828675  -1.774518  7.022564
H    -1.593570  -3.428491  6.384635
H    -3.207898  -2.910548  6.946794
Sr    -0.692796  2.056107  4.711450
