36
Energy: -108381.449728 eV PBE+vdW (tier 2 basis)
C    0.252014  1.284427  0.086290
C    -0.220506  0.416730  1.208303
O    0.587177  -0.353527  1.818527
H    0.619727  2.245708  0.480733
H    -0.536467  1.495965  -0.643452
H    1.094819  0.790764  -0.409173
N    -1.510663  0.473353  1.606742
C    -2.197728  1.755578  1.808358
C    -1.533020  2.510599  2.997778
O    -0.775633  1.765374  3.788964
H    -1.726849  -0.220771  2.322030
H    -2.069459  2.351505  0.895455
C    -3.713425  1.561829  2.019882
C    -4.181734  0.836504  3.293290
C    -4.045347  1.555799  4.643218
N    -4.836838  2.794184  4.723200
C    -4.492818  3.902971  5.414524
N    -5.471401  4.668380  5.927906
N    -3.211349  4.240410  5.576284
H    -4.093279  1.009594  1.148968
H    -4.184411  2.552502  1.971706
H    -3.682262  -0.139661  3.406313
H    -5.240294  0.572504  3.144501
H    -3.005955  1.802496  4.874207
H    -4.393882  0.870795  5.432647
H    -5.831229  2.691742  4.537558
H    -5.290742  5.619343  6.226657
H    -6.407652  4.310168  6.073756
H    -2.994070  5.011224  6.198241
N    -1.748984  3.750669  3.261392
C    -2.454474  4.633195  2.339771
H    -2.493951  4.008851  4.835931
H    -2.018893  5.636028  2.424286
H    -3.520553  4.724329  2.602347
H    -2.397091  4.334582  1.281991
Sr    0.963622  0.412797  4.000759
