36
Energy: -108381.12312 eV PBE+vdW (tier 2 basis)
C    -1.946572  -2.217712  2.436986
C    -1.249674  -1.359289  3.431212
O    -0.011400  -1.512904  3.691080
H    -1.271937  -2.488562  1.617977
H    -2.888982  -1.798535  2.054289
H    -2.198863  -3.156739  2.959646
N    -1.929288  -0.401802  4.109272
C    -2.843304  0.543425  3.470077
C    -1.998171  1.445580  2.536411
O    -0.720472  1.472976  2.649182
H    -1.419768  -0.024737  4.910143
H    -3.533878  -0.023979  2.828154
C    -3.612740  1.320735  4.569317
C    -4.792490  2.201069  4.131318
C    -6.093039  1.448264  3.781297
N    -5.949307  0.321905  2.864340
C    -5.447321  0.351893  1.591101
N    -5.532611  1.601178  0.940383
N    -4.826661  -0.690020  1.135760
H    -2.890774  1.946042  5.119534
H    -3.970649  0.560668  5.280752
H    -4.499942  2.868287  3.308159
H    -5.029310  2.877498  4.965100
H    -6.832780  2.170090  3.401864
H    -6.536408  1.034907  4.695771
H    -5.940745  -0.610480  3.263212
H    -5.471178  1.513203  -0.072676
H    -6.349334  2.161041  1.188611
H    -4.640805  -0.630583  0.131731
N    -2.619323  2.162540  1.623717
C    -1.943890  3.079617  0.705810
H    -3.643215  2.053029  1.499981
H    -1.374290  2.525785  -0.052052
H    -1.265444  3.741639  1.254569
H    -2.704828  3.683846  0.204344
Sr    1.226541  0.367421  3.155302
