36
Energy: -108382.356305 eV PBE+vdW (tier 2 basis)
C    -0.609804  -1.595946  0.697204
C    0.058064  -0.623719  1.615247
O    1.296591  -0.400429  1.550227
H    -0.931403  -1.082016  -0.222386
H    -1.484472  -2.075596  1.149795
H    0.119942  -2.357615  0.402845
N    -0.676099  0.051001  2.541674
C    -1.990361  0.619837  2.287561
C    -1.838311  1.709910  1.186728
O    -0.687036  2.095291  0.825684
H    -0.099273  0.614607  3.168267
H    -2.633761  -0.164146  1.861668
C    -2.657144  1.071456  3.621183
C    -1.779566  1.790013  4.659326
C    -1.499936  3.292941  4.423538
N    -0.217169  3.727047  4.968614
C    0.974292  3.483804  4.360401
N    2.094943  3.580203  5.105062
N    1.047989  3.137018  3.076755
H    -3.040881  0.154610  4.087524
H    -3.542024  1.680397  3.392939
H    -0.821945  1.265319  4.795173
H    -2.278306  1.679238  5.631570
H    -2.275498  3.905633  4.897981
H    -1.552258  3.555730  3.355238
H    -0.213593  4.124843  5.901490
H    2.987850  3.697728  4.645202
H    2.063242  3.761879  6.100524
H    0.132008  3.339819  2.663162
N    -2.922858  2.202580  0.594477
C    -4.332045  1.854868  0.788592
H    -2.724908  2.907784  -0.115118
H    -4.835914  1.900703  -0.182501
H    -4.823787  2.560300  1.470730
H    -4.439135  0.838621  1.179078
Sr    1.722203  1.912310  1.104978
