36
Energy: -108382.893022 eV PBE+vdW (tier 2 basis)
C    0.744116  0.921559  1.337557
C    -0.089368  0.870042  2.578210
O    0.308671  1.380800  3.656726
H    0.958968  1.972060  1.099553
H    0.270472  0.447536  0.471643
H    1.709187  0.434995  1.531403
N    -1.295904  0.262324  2.508118
C    -2.230897  0.218469  3.636808
C    -1.822016  -0.921483  4.597957
O    -1.002790  -0.662731  5.519251
H    -1.575893  -0.149018  1.621596
H    -2.023745  1.133816  4.199339
C    -3.690458  0.267856  3.167653
C    -4.758451  0.372187  4.273544
C    -4.704436  1.588247  5.219369
N    -3.731974  1.441985  6.310922
C    -2.572230  2.091405  6.546819
N    -2.101870  3.030811  5.613474
N    -1.719723  1.843202  7.515097
H    -3.927967  -0.607537  2.539754
H    -3.779797  1.134666  2.494348
H    -4.778015  -0.544284  4.884021
H    -5.735111  0.403322  3.770604
H    -5.694704  1.723331  5.675278
H    -4.507892  2.517371  4.667151
H    -3.946947  0.709814  6.982535
H    -1.774910  3.878177  6.077522
H    -2.724889  3.271466  4.846659
H    -2.098756  1.247320  8.253872
N    -2.316940  -2.138220  4.392630
C    -1.958458  -3.331065  5.160508
H    -2.972550  -2.258982  3.625612
H    -2.869136  -3.850673  5.478630
H    -1.381930  -3.027920  6.037468
H    -1.355578  -4.010599  4.545069
Sr    0.248283  1.326317  6.036650
