36
Energy: -108380.551986 eV PBE+vdW (tier 2 basis)
C    -1.029151  -0.234039  -1.576547
C    -0.664671  -0.901769  -0.298003
O    -0.334145  -2.138191  -0.294528
H    -0.579927  0.772550  -1.705367
H    -2.118825  -0.081730  -1.635541
H    -0.733066  -0.887814  -2.402523
N    -0.662749  -0.269295  0.905361
C    -1.683894  0.647924  1.422126
C    -2.954390  -0.189681  1.725747
O    -3.018912  -1.426413  1.420892
H    -0.207213  -0.827481  1.627115
H    -1.292239  1.008155  2.386094
C    -1.942282  1.871181  0.517421
C    -2.221855  3.212972  1.204692
C    -1.985686  4.387116  0.221243
N    -0.600679  4.529396  -0.185874
C    0.009144  3.816161  -1.206792
N    1.378071  3.912741  -1.231217
N    -0.576866  3.016197  -2.052752
H    -2.743014  1.649928  -0.202639
H    -1.029737  2.000504  -0.075227
H    -1.553435  3.346180  2.069462
H    -3.259016  3.285875  1.576362
H    -2.287620  5.322817  0.706823
H    -2.641338  4.282508  -0.658558
H    -0.080459  5.288378  0.237751
H    1.809097  3.702708  -2.123944
H    1.851569  4.609003  -0.669664
H    -1.590921  3.144456  -2.037564
N    -3.965389  0.426379  2.311334
C    -5.237441  -0.207931  2.668957
H    -3.855643  1.416799  2.518105
H    -5.869465  0.538717  3.156170
H    -5.067529  -1.039431  3.362881
H    -5.747007  -0.579061  1.771916
Sr    -2.035029  -3.373343  0.629248
