36
Energy: -108381.598006 eV PBE+vdW (tier 2 basis)
C    -4.543850  -2.374959  1.091287
C    -3.163563  -2.257887  1.650024
O    -2.202439  -2.920667  1.129423
H    -4.529630  -2.076329  0.034193
H    -5.270535  -1.759956  1.630843
H    -4.865177  -3.424349  1.124997
N    -2.961699  -1.451173  2.687192
C    -1.645461  -1.192639  3.282416
C    -1.189895  -2.443232  4.065125
O    -0.368262  -3.252687  3.513920
H    -3.765654  -0.926315  3.105666
H    -0.935193  -1.093521  2.448064
C    -1.599799  0.114898  4.115801
C    -2.549903  1.250876  3.686484
C    -3.893304  1.303725  4.433592
N    -4.749884  0.108854  4.240800
C    -4.965636  -0.910985  5.199943
N    -4.002193  -0.994569  6.233382
N    -5.847511  -1.829982  5.129998
H    -0.562083  0.467701  4.058737
H    -1.767909  -0.111207  5.174962
H    -2.725902  1.231999  2.600073
H    -2.046150  2.207918  3.880437
H    -4.460503  2.172581  4.077440
H    -3.718772  1.490001  5.503130
H    -5.621051  0.328334  3.763633
H    -4.374245  -1.632698  6.939787
H    -3.782755  -0.101123  6.674486
H    -6.478533  -1.742466  4.329100
N    -1.705505  -2.653991  5.257305
C    -1.411475  -3.812611  6.096858
H    -2.430730  -1.990991  5.605798
H    -1.384479  -3.492287  7.143611
H    -0.440814  -4.233628  5.822703
H    -2.191283  -4.577879  5.982661
Sr    -0.272075  -4.071601  1.386937
