36
Energy: -108381.330072 eV PBE+vdW (tier 2 basis)
C    1.091154  -0.622542  0.544328
C    -0.070868  0.270402  0.846808
O    -0.394956  1.195859  0.038178
H    0.849341  -1.312578  -0.277357
H    1.431278  -1.200795  1.407967
H    1.912701  0.012867  0.188179
N    -0.775623  0.102913  1.988597
C    -1.262018  -1.227964  2.399440
C    -2.637136  -1.458169  1.689499
O    -2.757574  -0.859616  0.515310
H    -1.450266  0.853511  2.140191
H    -0.582926  -1.960122  1.937366
C    -1.196333  -1.458532  3.910987
C    -2.023669  -0.505727  4.790675
C    -2.283440  -1.036169  6.226815
N    -3.697670  -1.376050  6.481059
C    -4.425880  -2.149667  5.663901
N    -5.752421  -1.982764  5.567029
N    -3.847513  -3.101641  4.901446
H    -0.138517  -1.402966  4.205923
H    -1.493736  -2.500826  4.071813
H    -2.994785  -0.295675  4.319361
H    -1.503716  0.458976  4.868706
H    -2.030151  -0.277890  6.974763
H    -1.641151  -1.901328  6.451595
H    -4.173423  -0.871107  7.222792
H    -6.228501  -1.194047  5.989094
H    -6.318260  -2.749087  5.219366
H    -2.936375  -3.401743  5.235180
N    -3.518830  -2.228294  2.224649
C    -4.728626  -2.498875  1.447223
H    -3.839995  -2.938109  3.857001
H    -4.496400  -2.844262  0.429426
H    -5.361695  -1.601554  1.360021
H    -5.312745  -3.280270  1.946227
Sr    -2.391408  0.639595  -1.056428
