36
Energy: -108382.13021 eV PBE+vdW (tier 2 basis)
C    -0.105296  -1.011045  -0.184162
C    -0.148929  -0.310696  1.134031
O    0.938804  0.012737  1.719641
H    0.574296  -0.457540  -0.845215
H    -1.082099  -1.103469  -0.667063
H    0.327414  -2.013218  -0.057112
N    -1.294598  0.004566  1.730148
C    -2.686348  -0.327177  1.434614
C    -3.477938  0.555268  2.431846
O    -2.894370  0.972196  3.455023
H    -1.240903  0.581066  2.578067
H    -2.919795  -0.029786  0.403172
C    -3.008571  -1.844019  1.602251
C    -3.545232  -2.380296  2.944142
C    -2.760397  -2.140133  4.245104
N    -1.326470  -2.438418  4.140586
C    -0.287594  -1.675328  4.515302
N    -0.485419  -0.297428  4.828366
N    0.978475  -2.033037  4.550483
H    -2.104247  -2.399154  1.316488
H    -3.756976  -2.106057  0.842382
H    -3.678731  -3.463886  2.806135
H    -4.558563  -1.993486  3.128674
H    -2.874131  -1.105987  4.579405
H    -3.191680  -2.774438  5.033422
H    -1.088549  -3.387353  3.859025
H    -0.382686  -0.142863  5.834489
H    -1.387348  0.099458  4.524635
H    1.139011  -3.037514  4.456717
N    -4.765294  0.811238  2.183455
C    -5.576965  0.384767  1.044765
H    -5.224602  1.362844  2.906325
H    -6.415688  1.079186  0.939007
H    -5.980867  -0.626409  1.190178
H    -5.001470  0.416798  0.112948
Sr    2.003566  0.031511  3.747558
