36
Energy: -108382.939282 eV PBE+vdW (tier 2 basis)
C    -0.534537  -0.850903  -0.095810
C    -0.547027  -0.840228  1.398590
O    0.521163  -0.861998  2.066492
H    -1.534509  -0.821241  -0.540757
H    -0.012079  -1.751673  -0.444688
H    0.043928  0.011819  -0.452578
N    -1.739054  -0.803607  2.032254
C    -1.829187  -0.695752  3.488963
C    -1.425653  -2.018731  4.178768
O    -0.322497  -2.045305  4.804308
H    -2.585584  -0.747447  1.472900
H    -1.023535  -0.010426  3.774985
C    -3.157457  -0.071095  3.991076
C    -2.983706  1.309496  4.646306
C    -2.298838  1.313004  6.025726
N    -0.879613  0.947736  6.015556
C    0.162818  1.717679  5.605096
N    -0.023845  3.058171  5.570830
N    1.289550  1.120796  5.219104
H    -3.648330  -0.749170  4.703500
H    -3.856754  0.024371  3.147234
H    -3.983580  1.745495  4.784082
H    -2.449796  1.989423  3.964032
H    -2.796796  0.606719  6.703503
H    -2.432210  2.298312  6.493452
H    -0.638797  -0.013456  6.226648
H    0.725884  3.659771  5.253605
H    -0.737966  3.500380  6.137468
H    2.048709  1.807181  5.189037
N    -2.189230  -3.104767  4.129069
C    -3.488160  -3.313035  3.491849
H    -1.805536  -3.901123  4.639251
H    -3.473408  -4.271157  2.960354
H    -3.704271  -2.524297  2.768752
H    -4.287322  -3.339515  4.243849
Sr    1.721205  -1.027265  4.102505
