36
Energy: -108380.410421 eV PBE+vdW (tier 2 basis)
C    -0.036350  0.442310  -0.033721
C    -0.064637  0.123800  1.424177
O    1.009122  0.054385  2.100377
H    0.065892  1.528861  -0.184735
H    -0.930398  0.097515  -0.562209
H    0.855421  -0.022347  -0.471708
N    -1.246128  -0.066153  2.055603
C    -2.409898  0.809951  1.870706
C    -1.942893  2.261690  2.146680
O    -0.927848  2.443841  2.916467
H    -1.156381  -0.434925  3.003289
H    -2.776344  0.729798  0.838227
C    -3.527520  0.347873  2.841516
C    -4.755424  1.243877  2.784024
C    -5.974585  0.861397  3.641266
N    -6.957027  1.953019  3.605054
C    -7.402176  2.364211  2.326348
N    -8.237221  1.445343  1.735353
N    -6.966864  3.481036  1.837981
H    -3.115244  0.324683  3.865618
H    -3.772350  -0.689445  2.567955
H    -5.105274  1.312506  1.744341
H    -4.475436  2.264158  3.086266
H    -5.697190  0.693957  4.691274
H    -6.435104  -0.066028  3.275916
H    -6.591776  2.780870  4.075425
H    -8.665156  1.695805  0.851356
H    -8.829434  0.901343  2.355046
H    -7.491479  3.758845  1.001503
N    -2.546306  3.308060  1.611818
C    -3.671851  3.405168  0.672537
H    -2.173972  4.202579  1.934871
H    -4.621856  3.609984  1.200926
H    -3.775839  2.480380  0.098404
H    -3.455852  4.227115  -0.018454
Sr    1.146720  1.789137  3.644510
