36
Energy: -108379.654343 eV PBE+vdW (tier 2 basis)
C    -1.051081  -1.151139  2.244811
C    -0.712599  0.008802  3.119107
O    0.100085  -0.185756  4.121709
H    -0.128788  -1.672213  1.958767
H    -1.593725  -0.862381  1.340681
H    -1.669340  -1.862576  2.811302
N    -1.189850  1.209866  2.932713
C    -2.200229  1.720220  1.994416
C    -1.981251  3.256531  2.120359
O    -1.478031  3.667714  3.178440
H    -0.934459  2.007607  3.560882
H    -1.994940  1.354815  0.980088
C    -3.594628  1.276566  2.500923
C    -4.824524  1.790000  1.751810
C    -6.138208  1.234153  2.346377
N    -6.388243  1.612284  3.722642
C    -5.987554  0.896682  4.832295
N    -6.204903  1.534344  6.037551
N    -5.385740  -0.258340  4.847977
H    -3.661495  1.571803  3.557842
H    -3.601661  0.175981  2.489834
H    -4.789938  1.500735  0.690000
H    -4.863808  2.888657  1.787282
H    -6.158791  0.136845  2.265270
H    -6.979242  1.593513  1.739046
H    -6.843836  2.504682  3.874999
H    -6.155497  0.907173  6.833525
H    -6.955597  2.213692  6.098874
H    -5.323682  -0.659805  3.910495
N    -2.344867  4.075031  1.122719
C    -2.849002  3.769777  -0.211658
H    -2.186007  5.058234  1.338471
H    -2.257603  4.314230  -0.957271
H    -3.901492  4.063349  -0.314485
H    -2.764657  2.701368  -0.427486
Sr    1.283767  -0.536774  5.893008
