31
Energy: -173741.0004403  eV PBE+vdW (tier 2 basis)
C    -1.89269  3.48399  0.31626
C    -1.03680  2.63792  1.17884
O    -0.08396  3.18553  1.83594
H    -2.38982  4.26806  0.90639
H    -2.61710  2.91230  -0.27102
H    -1.22411  4.02438  -0.37739
N    -1.19337  1.28425  1.25810
C    -2.44172  0.59349  1.58045
C    -2.60455  0.64952  3.14309
O    -1.61155  0.94034  3.90624
H    -0.37039  0.80803  1.63516
H    -3.27393  1.14925  1.12589
C    -2.42424  -0.88249  1.07018
C    -2.38496  -1.08624  -0.41621
N    -3.51858  -1.25093  -1.21196
C    -1.31904  -1.26671  -1.26334
C    -3.16567  -1.52277  -2.47478
N    -1.83105  -1.52730  -2.51567
H    -3.29830  -1.40832  1.48083
H    -1.55501  -1.39590  1.50835
H    -4.48852  -1.23881  -0.90202
H    -0.25225  -1.26616  -1.07493
H    -3.83883  -1.71407  -3.30534
H    -1.28216  -1.72453  -3.35375
N    -3.77288  0.34041  3.66388
C    -4.11571  0.31385  5.09455
H    -4.52045  0.06296  3.02797
H    -3.32870  0.80018  5.67333
H    -4.22143  -0.72928  5.42205
H    -5.07176  0.83148  5.23488
Cd    -0.03046  2.40059  3.84004
