31
Energy: -173741.2132531  eV PBE+vdW (tier 2 basis)
C    0.05090  -0.29754  0.07440
C    -0.17054  0.46886  1.33176
O    0.34141  1.63802  1.41157
H    -0.34467  0.29742  -0.76484
H    -0.42937  -1.28194  0.07242
H    1.12921  -0.40506  -0.10970
N    -0.91517  -0.08629  2.30957
C    -1.59623  0.57222  3.43716
C    -0.72018  0.65274  4.71358
O    0.47260  1.11713  4.65433
H    -1.22909  -1.03605  2.11392
H    -1.73546  1.63118  3.15407
C    -3.04533  0.00224  3.57423
C    -3.31073  -1.47008  3.41362
N    -2.97896  -2.49792  4.30258
C    -4.09116  -2.06907  2.45191
C    -3.53115  -3.65325  3.90487
N    -4.20569  -3.40086  2.78155
H    -3.63825  0.49012  2.78876
H    -3.49882  0.37414  4.50688
H    -2.41639  -2.42972  5.14696
H    -4.59939  -1.64556  1.59211
H    -3.44338  -4.61446  4.40378
H    -4.74388  -4.09788  2.26279
N    -1.19364  0.30359  5.89441
C    -0.45924  0.47113  7.16461
H    -2.16177  0.00238  5.95940
H    -0.22485  1.53123  7.32334
H    0.47203  -0.10602  7.13852
H    -1.09614  0.11369  7.97790
Cd    1.25785  2.40537  3.15067
