31
Energy: -173740.9977535  eV PBE+vdW (tier 2 basis)
C    -1.73979  3.58096  0.53829
C    -1.10698  2.69813  1.54469
O    -0.26353  3.20011  2.36685
H    -2.30324  4.39032  1.02578
H    -2.36457  3.04176  -0.17931
H    -0.92552  4.08543  -0.01147
N    -1.35248  1.35654  1.59522
C    -2.67672  0.74062  1.67775
C    -3.13501  0.82810  3.17985
O    -2.29454  1.08050  4.11958
H    -0.63773  0.83742  2.11060
H    -3.37560  1.34042  1.07775
C    -2.66143  -0.73214  1.18209
C    -2.43028  -0.93654  -0.29118
N    -1.58531  -1.93017  -0.77827
C    -3.01673  -0.38205  -1.40300
C    -1.65061  -1.98684  -2.11435
N    -2.51340  -1.04532  -2.50217
H    -3.62005  -1.20114  1.45207
H    -1.90245  -1.28961  1.75265
H    -1.01816  -2.56871  -0.22238
H    -3.76210  0.39664  -1.50947
H    -1.10498  -2.67029  -2.75827
H    -2.76766  -0.86411  -3.47413
N    -4.39811  0.59215  3.46227
C    -5.01694  0.61231  4.79696
H    -5.02026  0.34022  2.69353
H    -4.32901  1.05679  5.51822
H    -5.25509  -0.41617  5.10043
H    -5.94558  1.19249  4.74290
Cd    -0.64212  2.44220  4.34556
