31
Energy: -173740.9965576  eV PBE+vdW (tier 2 basis)
C    -1.55574  3.52979  0.25746
C    -0.85441  2.64847  1.21871
O    0.08406  3.13857  1.93865
H    -2.03143  4.37559  0.77548
H    -2.27333  2.99787  -0.37366
H    -0.78499  3.98354  -0.39076
N    -1.13730  1.31737  1.32772
C    -2.46545  0.75163  1.56400
C    -2.75581  0.87850  3.10434
O    -1.81112  1.11727  3.94331
H    -0.39111  0.78585  1.78233
H    -3.20327  1.36735  1.03049
C    -2.55682  -0.72844  1.09640
C    -2.50668  -0.96042  -0.38978
N    -1.69544  -1.93326  -0.96746
C    -3.25368  -0.45008  -1.42401
C    -1.93232  -2.01997  -2.28252
N    -2.87310  -1.11730  -2.56882
H    -3.49271  -1.15930  1.48334
H    -1.75674  -1.30518  1.58558
H    -1.03906  -2.54188  -0.48055
H    -4.03633  0.29870  -1.44265
H    -1.45083  -2.69767  -2.98134
H    -3.25971  -0.96597  -3.50153
N    -3.98806  0.68734  3.52393
C    -4.46201  0.74531  4.91530
H    -4.69634  0.44830  2.82913
H    -4.76535  -0.26114  5.23346
H    -5.33242  1.41094  4.96262
H    -3.66416  1.11032  5.56394
Cd    -0.10837  2.43489  3.96389
