31
Energy: -173741.3453982  eV PBE+vdW (tier 2 basis)
C    1.54040  -0.52133  0.99054
C    0.91218  -0.84935  2.30354
O    1.68202  -1.28392  3.22674
H    0.81673  -0.29587  0.19940
H    2.18039  -1.35920  0.67889
H    2.21097  0.34194  1.12426
N    -0.41955  -0.68493  2.42580
C    -1.36693  -1.01527  3.51618
C    -1.16028  -0.15205  4.78219
O    -0.32029  -0.48694  5.70506
H    -0.85860  -0.30068  1.59166
H    -2.34279  -0.73217  3.10662
C    -1.43407  -2.53782  3.86413
C    -2.18366  -3.39260  2.88233
N    -3.51971  -3.75730  3.04647
C    -1.76976  -4.03803  1.74265
C    -3.90141  -4.58355  2.06459
N    -2.84620  -4.75424  1.26473
H    -1.89865  -2.64089  4.85580
H    -0.42245  -2.95179  3.96308
H    -4.12934  -3.49971  3.82105
H    -0.80338  -4.07396  1.25488
H    -4.88182  -5.03621  1.94741
H    -2.84428  -5.35057  0.43584
N    -1.90416  0.91291  5.00505
C    -3.00711  1.52204  4.25297
H    -1.68606  1.37847  5.89355
H    -3.09867  1.10257  3.24842
H    -2.80796  2.59803  4.16768
H    -3.94619  1.38544  4.80549
Cd    1.66262  -1.09799  5.33200
