31
Energy: -173741.4613172  eV PBE+vdW (tier 2 basis)
C    0.68101  1.01770  0.40092
C    0.38010  0.07652  1.51857
O    1.37166  -0.53111  2.05276
H    1.24713  1.87369  0.80061
H    -0.21102  1.38596  -0.11763
H    1.34850  0.52059  -0.31755
N    -0.90627  -0.08608  1.88049
C    -1.57221  -1.01832  2.82344
C    -1.26978  -0.71732  4.31339
O    -0.19567  -1.10810  4.90419
H    -1.54935  0.51198  1.36529
H    -2.63902  -0.80072  2.68330
C    -1.35636  -2.52871  2.48045
C    -2.13541  -3.04431  1.30436
N    -3.37281  -3.67742  1.42041
C    -1.82610  -3.09634  -0.03288
C    -3.79540  -4.09761  0.22145
N    -2.86472  -3.74316  -0.66771
H    -1.61849  -3.11971  3.37061
H    -0.29392  -2.72803  2.29022
H    -3.88172  -3.86543  2.28274
H    -0.95065  -2.76104  -0.57546
H    -4.71719  -4.63362  0.01422
H    -2.91705  -3.94832  -1.66666
N    -2.20430  -0.10352  5.01094
C    -2.13095  0.25466  6.43433
H    -3.07916  0.12818  4.54081
H    -1.10881  0.13273  6.79736
H    -2.80599  -0.39656  7.00632
H    -2.46005  1.29454  6.54874
Cd    1.72799  -1.13313  4.04298
