31
Energy: -173740.9958308  eV PBE+vdW (tier 2 basis)
C    -1.50012  3.49818  0.25197
C    -0.82346  2.62087  1.23411
O    0.10794  3.10873  1.96426
H    -1.97137  4.35689  0.75238
H    -2.21607  2.96679  -0.38159
H    -0.71497  3.93300  -0.39195
N    -1.12224  1.29382  1.35161
C    -2.46032  0.74471  1.57207
C    -2.76587  0.87735  3.10943
O    -1.82992  1.11963  3.95704
H    -0.39112  0.76080  1.82845
H    -3.18337  1.37059  1.03039
C    -2.56639  -0.73299  1.09566
C    -2.52441  -0.95588  -0.39244
N    -1.63284  -1.83638  -0.99957
C    -3.34757  -0.51961  -1.40286
C    -1.89511  -1.93983  -2.30846
N    -2.93115  -1.13720  -2.56246
H    -3.50477  -1.15838  1.48129
H    -1.77100  -1.32096  1.57849
H    -0.90628  -2.37857  -0.53479
H    -4.20379  0.14429  -1.39440
H    -1.36683  -2.56168  -3.02510
H    -3.35819  -1.02363  -3.48284
N    -4.00247  0.69177  3.51856
C    -4.48984  0.76384  4.90513
H    -4.70450  0.44732  2.81956
H    -4.78015  -0.24202  5.23709
H    -5.37060  1.41667  4.93364
H    -3.70392  1.15208  5.55498
Cd    -0.12028  2.42679  3.99337
