31
Energy: -173741.0005337  eV PBE+vdW (tier 2 basis)
C    -1.60980  3.55382  0.69393
C    -0.94093  2.54097  1.54333
O    -0.00212  2.91403  2.32888
H    -2.36813  3.13565  0.02531
H    -0.82592  4.03622  0.08271
H    -2.03342  4.36175  1.30789
N    -1.25667  1.21399  1.48226
C    -2.60778  0.66304  1.62538
C    -2.98605  0.75932  3.14679
O    -2.07775  0.85355  4.05166
H    -0.53290  0.60870  1.87762
H    -3.30692  1.28860  1.05166
C    -2.68365  -0.80617  1.14702
C    -2.52946  -1.04546  -0.33012
N    -2.76561  -2.30706  -0.87179
C    -2.17941  -0.25278  -1.39364
C    -2.57429  -2.28942  -2.19643
N    -2.21913  -1.04617  -2.52360
H    -3.65840  -1.21069  1.46079
H    -1.93430  -1.40165  1.69713
H    -3.04750  -3.14300  -0.36045
H    -1.90132  0.79069  -1.45075
H    -2.69008  -3.12981  -2.87480
H    -2.01010  -0.74022  -3.47456
N    -4.25745  0.69425  3.47911
C    -4.80836  0.74728  4.84200
H    -4.93979  0.56315  2.73126
H    -5.70508  1.37682  4.83032
H    -4.06356  1.15524  5.52804
H    -5.08555  -0.26598  5.16327
Cd    -0.28158  2.02133  4.26879
