31
Energy: -173741.4367754  eV PBE+vdW (tier 2 basis)
C    1.56660  1.57844  0.88739
C    0.97346  0.48206  1.70436
O    1.78645  -0.27515  2.34181
H    2.14592  2.24689  1.54119
H    0.82645  2.15906  0.32579
H    2.28875  1.13703  0.18269
N    -0.36530  0.33977  1.70329
C    -1.26905  -0.74479  2.17519
C    -1.41650  -0.77168  3.71712
O    -0.54884  -1.32687  4.48808
H    -0.84375  1.06184  1.16738
H    -2.24626  -0.44495  1.77514
C    -0.92105  -2.13401  1.55002
C    -2.07005  -3.09304  1.41731
N    -2.77990  -3.27157  0.23028
C    -2.59989  -4.00569  2.29708
C    -3.68889  -4.24365  0.37250
N    -3.59090  -4.69054  1.62713
H    -0.12625  -2.63316  2.11968
H    -0.49662  -1.94618  0.55398
H    -2.61848  -2.78920  -0.65285
H    -2.33892  -4.24251  3.32150
H    -4.37068  -4.60573  -0.39179
H    -4.15750  -5.44744  2.01277
N    -2.50724  -0.24247  4.23314
C    -2.83289  -0.13255  5.66144
H    -3.20501  0.13063  3.58940
H    -3.74857  -0.70201  5.86653
H    -3.01581  0.92311  5.90004
H    -2.01022  -0.52310  6.26260
Cd    1.54897  -1.22352  4.19883
