31
Energy: -173741.3226264  eV PBE+vdW (tier 2 basis)
C    2.91423  -0.73005  2.06740
C    1.73780  -1.00545  2.94065
O    1.97602  -1.48825  4.10123
H    3.56758  0.00518  2.56023
H    2.64585  -0.37336  1.06672
H    3.50551  -1.65428  1.97496
N    0.50899  -0.75296  2.44913
C    -0.85531  -1.09837  2.92544
C    -1.26568  -0.28461  4.17455
O    -0.98310  -0.67575  5.37115
H    0.52668  -0.35351  1.51253
H    -1.50276  -0.75887  2.10840
C    -1.06846  -2.63605  3.07827
C    -2.49515  -3.10320  3.00255
N    -3.03643  -3.70582  1.86789
C    -3.49530  -3.13947  3.94425
C    -4.29489  -4.09653  2.10250
N    -4.58410  -3.74994  3.35937
H    -0.63436  -3.00515  4.01663
H    -0.49134  -3.11977  2.27803
H    -2.55391  -3.88722  0.98860
H    -3.51446  -2.81137  4.97648
H    -4.95248  -4.60655  1.40426
H    -5.47784  -3.93879  3.81565
N    -1.97762  0.81505  4.03425
C    -2.50765  1.44396  2.81139
H    -2.19093  1.29194  4.91562
H    -3.20534  0.77566  2.29181
H    -1.69215  1.74784  2.14371
H    -3.05607  2.34157  3.11170
Cd    0.96268  -1.31386  5.93365
