31
Energy: -173741.5320016  eV PBE+vdW (tier 2 basis)
C    -1.81522  -2.83397  1.39153
C    -1.41787  -1.56320  2.05952
O    -0.48628  -0.87308  1.51902
H    -2.70116  -3.30285  1.83339
H    -0.96966  -3.53811  1.42944
H    -1.99654  -2.63505  0.32481
N    -2.06933  -1.19166  3.17925
C    -1.98755  0.08967  3.90824
C    -0.78595  0.09464  4.89942
O    0.39044  0.40040  4.47894
H    -2.74795  -1.86777  3.52724
H    -1.75269  0.87688  3.17427
C    -3.33881  0.43846  4.57181
C    -4.47239  0.79975  3.64822
N    -5.73527  1.08977  4.16004
C    -4.57852  0.98173  2.29275
C    -6.57083  1.43495  3.17303
N    -5.87854  1.37169  2.03487
H    -3.16283  1.29732  5.23997
H    -3.66756  -0.39660  5.21584
H    -6.01344  1.06504  5.14075
H    -3.85668  0.87878  1.49314
H    -7.61534  1.71320  3.28183
H    -6.26550  1.58669  1.11516
N    -0.95585  -0.20323  6.16877
C    0.10219  -0.24846  7.19296
H    -1.90037  -0.38768  6.50137
H    0.04167  0.65277  7.81767
H    1.08097  -0.29750  6.71205
H    -0.06035  -1.13251  7.81961
Cd    1.02618  0.27091  2.46608
