31
Energy: -173741.3056438  eV PBE+vdW (tier 2 basis)
C    -1.01720  2.45527  1.77494
C    -0.53275  1.11781  2.22440
O    0.72014  0.88339  2.12545
H    -0.61640  3.22394  2.45430
H    -2.10901  2.54022  1.74051
H    -0.59733  2.67641  0.78323
N    -1.44282  0.23572  2.68263
C    -1.32444  -1.18008  3.10576
C    -0.51784  -1.35059  4.41356
O    0.76870  -1.47535  4.41014
H    -2.38865  0.61050  2.72397
H    -2.35441  -1.46910  3.34021
C    -0.82232  -2.15592  1.98766
C    -1.88747  -2.72691  1.09471
N    -2.24565  -2.21757  -0.15253
C    -2.64228  -3.86473  1.25180
C    -3.16636  -3.00242  -0.72925
N    -3.41719  -4.00013  0.12133
H    -0.32730  -3.00519  2.47913
H    -0.05132  -1.67211  1.37264
H    -1.84472  -1.40594  -0.61714
H    -2.67036  -4.59463  2.05271
H    -3.61628  -2.85788  -1.70704
H    -4.07359  -4.76105  -0.06127
N    -1.12754  -1.46321  5.57641
C    -2.54592  -1.48674  5.95055
H    -0.47858  -1.59606  6.36070
H    -2.69885  -0.76139  6.76013
H    -2.80656  -2.48565  6.32451
H    -3.19553  -1.22148  5.11329
Cd    2.06985  -0.24814  3.29655
