31
Energy: -173740.6267021  eV PBE+vdW (tier 2 basis)
C    0.10209  0.02203  -0.17027
C    -0.05257  -0.10355  1.30725
O    0.92591  -0.47492  2.06544
H    0.81410  0.83369  -0.39027
H    -0.82582  0.24227  -0.70485
H    0.51688  -0.91209  -0.57481
N    -1.19702  0.13337  1.94388
C    -2.48374  0.61038  1.42000
C    -3.08572  1.45728  2.58385
O    -2.86901  1.09551  3.74126
H    -1.17419  0.09238  2.97178
H    -2.29295  1.24500  0.54528
C    -3.46478  -0.50174  0.95391
C    -4.13540  -1.39314  1.95984
N    -5.25461  -2.13553  1.59118
C    -3.90701  -1.71844  3.28044
C    -5.69082  -2.87220  2.61970
N    -4.87914  -2.62175  3.65073
H    -2.92621  -1.13014  0.22384
H    -4.25204  0.00255  0.36980
H    -5.69749  -2.14126  0.67272
H    -3.16512  -1.36554  3.98382
H    -6.54373  -3.54460  2.61492
H    -4.97920  -3.04036  4.57599
N    -3.83430  2.53104  2.24966
C    -4.42614  3.42928  3.22977
H    -3.88985  2.80920  1.27043
H    -4.49202  2.92367  4.19749
H    -5.41450  3.74739  2.87103
H    -3.80758  4.33642  3.34403
Cd    3.04869  -0.55977  1.78567
