31
Energy: -173741.3458583  eV PBE+vdW (tier 2 basis)
 C   -0.00283    1.33642    0.67931
 C   -0.05804    0.92584    2.11047
 O    0.90527    1.28286    2.86797
 H    0.19215    2.41732    0.62219
 H   -0.91492    1.09718    0.12111
 H    0.85784    0.84487    0.19982
 N   -1.12423    0.21696    2.53866
 C   -1.42699   -0.18392    3.92159
 C   -0.54404   -1.38363    4.38166
 O    0.47708   -1.13221    5.13123
 H   -1.79818   -0.03871    1.81886
 H   -1.10883    0.63987    4.57872
 C   -2.94398   -0.38898    4.15745
 C   -3.76657    0.86160    4.32336
 N   -4.98041    0.82921    5.00572
 C   -3.63417    2.15364    3.87952
 C   -5.56160    2.03456    4.98374
 N   -4.75022    2.84695    4.30476
 H   -3.05071   -0.99165    5.07249
 H   -3.37804   -0.99834    3.34963
 H   -5.39721    0.01897    5.46328
 H   -2.86164    2.63736    3.29634
 H   -6.51232    2.29944    5.43768
 H   -4.94240    3.83381    4.12883
 N   -0.77605   -2.64484    4.08132
 C   -1.84790   -3.28412    3.30706
 H   -0.08904   -3.28785    4.48910
 H   -2.16803   -2.65169    2.47398
 H   -2.69886   -3.53722    3.95297
 H   -1.44453   -4.21449    2.89272
Cd    1.74737    0.49878    4.65848
