31
Energy: -173741.3456021  eV PBE+vdW (tier 2 basis)
C    -0.13210  1.76597  0.95394
C    -0.22066  1.24169  2.34580
O    0.65420  1.63794  3.18669
H    -0.98136  1.47737  0.32453
H    0.80142  1.40491  0.49515
H    -0.05251  2.86238  0.98632
N    -1.22440  0.39315  2.65324
C    -1.55689  -0.14628  3.98119
C    -0.57206  -1.27724  4.40768
O    0.37076  -0.97816  5.23787
H    -1.82724  0.12792  1.87616
H    -1.36866  0.65131  4.71625
C    -3.05137  -0.53045  4.10450
C    -4.01731  0.61031  4.28770
N    -5.29261  0.38512  4.80066
C    -3.96968  1.95335  4.00949
C    -5.98979  1.52695  4.83761
N    -5.19440  2.48609  4.36158
H    -3.14286  -1.19965  4.97428
H    -3.36587  -1.12893  3.23550
H    -5.67205  -0.50871  5.11190
H    -3.18862  2.57330  3.58931
H    -7.00941  1.64750  5.19259
H    -5.46668  3.46578  4.27321
N    -0.64327  -2.52750  4.00009
C    -1.59000  -3.21335  3.11088
H    0.08790  -3.12359  4.40228
H    -2.44355  -3.60721  3.67795
H    -1.06143  -4.05871  2.65711
H    -1.92901  -2.55360  2.30693
Cd    1.47752  0.81034  4.96663
