31
Energy: -173740.6133473  eV PBE+vdW (tier 2 basis)
C    -0.43875  0.40832  0.43123
C    -0.41379  0.22489  1.90462
O    0.59021  0.69881  2.53928
H    -1.43619  0.35234  -0.01063
H    0.22748  -0.32492  -0.05384
H    0.00668  1.39114  0.21033
N    -1.43226  -0.33710  2.62929
C    -2.05148  -1.67149  2.48797
C    -1.02408  -2.71060  3.04496
O    0.22929  -2.42373  3.08883
H    -1.37370  -0.06114  3.61295
H    -2.90725  -1.66466  3.17925
C    -2.57311  -2.04450  1.07397
C    -3.92825  -1.51461  0.69977
N    -4.34873  -0.18651  0.76612
C    -4.97964  -2.20081  0.14319
C    -5.59309  -0.06884  0.27781
N    -5.97947  -1.28643  -0.10495
H    -2.64865  -3.13777  1.01622
H    -1.82828  -1.78309  0.31045
H    -3.82849  0.60293  1.13963
H    -5.08731  -3.24908  -0.11131
H    -6.17583  0.84503  0.21185
H    -6.88662  -1.49835  -0.52387
N    -1.41895  -3.89832  3.45625
C    -2.75164  -4.51001  3.46121
H    -0.66035  -4.49438  3.80283
H    -2.82363  -5.25722  2.65871
H    -3.53731  -3.75790  3.34665
H    -2.88960  -5.02202  4.42129
Cd    1.49382  -0.81947  3.77157
