31
Energy: -173740.6481826  eV PBE+vdW (tier 2 basis)
C    0.47057  -0.33018  0.74361
C    -0.11819  -0.13264  2.09518
O    0.48071  -0.52032  3.16692
H    1.43622  0.19680  0.69127
H    -0.15051  0.03476  -0.07827
H    0.66928  -1.40032  0.58705
N    -1.32083  0.42136  2.31006
C    -2.41827  0.74321  1.38729
C    -2.92936  2.15512  1.85212
O    -3.65498  2.21505  2.83948
H    -1.56505  0.50598  3.30364
H    -2.02916  0.78535  0.36317
C    -3.55344  -0.31915  1.52458
C    -4.84616  -0.04757  0.81610
N    -5.19782  -0.59395  -0.41586
C    -5.96033  0.64215  1.23948
C    -6.45718  -0.26375  -0.73012
N    -6.92343  0.49283  0.26857
H    -3.78669  -0.41616  2.59418
H    -3.15001  -1.28849  1.19825
H    -4.62540  -1.20763  -0.99225
H    -6.13688  1.19904  2.15223
H    -6.99860  -0.56174  -1.62265
H    -7.86814  0.87754  0.30575
N    -2.50195  3.22476  1.14647
C    -2.93601  4.58523  1.44322
H    -1.96990  3.07502  0.29190
H    -2.13050  5.27787  1.17028
H    -3.18153  4.65878  2.50851
H    -3.82986  4.85541  0.85807
Cd    2.53499  -0.79536  3.76622
