31
Energy: -173741.5119167  eV PBE+vdW (tier 2 basis)
C    0.38471  -3.39332  1.19283
C    0.08845  -2.05662  1.77704
O    1.01813  -1.17871  1.74537
H    0.66034  -3.25459  0.13477
H    -0.45740  -4.09188  1.25232
H    1.26736  -3.82362  1.68704
N    -1.14131  -1.83003  2.28267
C    -1.77142  -0.53996  2.63784
C    -1.43853  -0.16410  4.10641
O    -0.34654  0.46154  4.37172
H    -1.75093  -2.64708  2.29533
H    -1.30380  0.23948  2.01535
C    -3.26565  -0.62600  2.24011
C    -4.05708  0.65323  2.23168
N    -5.27621  0.72178  1.56051
C    -3.87108  1.89934  2.77553
C    -5.80945  1.94272  1.68447
N    -4.96337  2.66642  2.41902
H    -3.78721  -1.38066  2.85657
H    -3.27916  -1.03475  1.21703
H    -5.72428  -0.03140  1.03872
H    -3.07219  2.31087  3.37899
H    -6.75269  2.27920  1.26312
H    -5.11401  3.64392  2.67145
N    -2.26378  -0.48249  5.08013
C    -2.04079  -0.25722  6.51775
H    -3.14194  -0.93536  4.83171
H    -1.04624  0.16338  6.67594
H    -2.13684  -1.21589  7.04253
H    -2.80335  0.43381  6.89852
Cd    1.38626  0.36199  3.13753
