31
Energy: -173741.3275263  eV PBE+vdW (tier 2 basis)
C    0.69324  0.28093  -0.25999
C    0.39302  0.45124  1.18810
O    1.23710  1.10305  1.89171
H    0.79965  1.27886  -0.71413
H    -0.07859  -0.27804  -0.80113
H    1.66665  -0.21733  -0.37563
N    -0.75296  -0.06745  1.67692
C    -1.35840  0.17910  2.99691
C    -0.70033  -0.71272  4.08690
O    0.19636  -0.17258  4.84498
H    -1.31304  -0.58311  0.99970
H    -1.08770  1.20489  3.29298
C    -2.89886  0.15681  2.84285
C    -3.71559  0.56099  4.03869
N    -5.08764  0.76797  3.91180
C    -3.43046  0.81397  5.35711
C    -5.61625  1.12922  5.08695
N    -4.61888  1.16007  5.97170
H    -3.23817  -0.82882  2.49090
H    -3.12088  0.86388  2.02647
H    -5.63778  0.67501  3.05802
H    -2.50186  0.78551  5.91286
H    -6.66103  1.35594  5.28030
H    -4.73170  1.40810  6.95534
N    -0.99420  -1.97879  4.29870
C    -1.96643  -2.86891  3.64858
H    -0.44055  -2.40404  5.04923
H    -2.96612  -2.74363  4.08427
H    -1.64189  -3.89883  3.83000
H    -1.98899  -2.70870  2.56626
Cd    1.65925  1.11142  3.96365
