31
Energy: -173740.9227248  eV PBE+vdW (tier 2 basis)
C    -1.03298  2.05513  -0.84072
C    -0.35773  1.53452  0.36815
O    0.91962  1.44346  0.37805
H    -0.64255  3.04404  -1.11912
H    -2.12439  2.05823  -0.76263
H    -0.75377  1.38370  -1.67430
N    -1.04681  1.08705  1.45864
C    -2.09379  1.80194  2.18371
C    -1.37771  2.67838  3.26993
O    -0.11210  2.62197  3.47410
H    -0.52362  0.41892  2.02948
H    -2.58436  2.48259  1.47308
C    -3.11962  0.77687  2.75673
C    -4.49813  1.27455  3.09768
N    -5.27249  0.64563  4.07024
C    -5.32941  2.20649  2.52081
C    -6.51034  1.15542  4.08624
N    -6.55239  2.10917  3.15428
H    -2.68454  0.28497  3.64030
H    -3.22551  -0.00738  1.99001
H    -4.97818  -0.12246  4.67317
H    -5.17762  2.89744  1.70007
H    -7.32396  0.85153  4.73902
H    -7.38026  2.66695  2.93875
N    -2.10767  3.48495  4.01150
C    -1.57700  4.37655  5.05929
H    -3.11597  3.48190  3.86737
H    -0.74147  4.96270  4.66149
H    -1.23252  3.78824  5.91880
H    -2.37854  5.05028  5.37286
Cd    1.61879  2.05428  2.31501
