31
Energy: -173741.5375931  eV PBE+vdW (tier 2 basis)
C    -0.33152  -1.95719  0.45439
C    -0.41246  -0.87993  1.47948
O    0.53662  -0.02335  1.51627
H    -0.19697  -1.49253  -0.53447
H    -1.21146  -2.60923  0.43348
H    0.57123  -2.56033  0.63256
N    -1.48331  -0.84392  2.29778
C    -1.89791  0.22644  3.22337
C    -1.21385  0.05954  4.61095
O    -0.00128  0.45530  4.78269
H    -2.11893  -1.63485  2.20751
H    -1.50993  1.17497  2.81964
C    -3.45166  0.32268  3.29252
C    -4.17645  0.78651  2.06121
N    -4.42333  2.12629  1.76208
C    -4.84288  0.07064  1.09690
C    -5.20007  2.22419  0.67545
N    -5.45365  0.98051  0.26147
H    -3.70787  1.00030  4.12111
H    -3.87361  -0.65899  3.56049
H    -4.13179  2.93628  2.30653
H    -4.96780  -0.99734  0.96068
H    -5.56368  3.14269  0.22373
H    -6.04083  0.74983  -0.54177
N    -1.86213  -0.47372  5.62270
C    -1.31984  -0.69423  6.97528
H    -2.82596  -0.76930  5.47935
H    -1.08132  -1.75871  7.10165
H    -2.08509  -0.40890  7.70545
H    -0.42164  -0.09005  7.11679
Cd    1.38035  0.87143  3.23872
