31
Energy: -173741.4621956  eV PBE+vdW (tier 2 basis)
C    -0.09471  1.52694  0.51882
C    -0.10046  0.51362  1.61374
O    1.03588  0.13352  2.06303
H    -1.07962  1.69736  0.07029
H    0.61688  1.21241  -0.25813
H    0.29123  2.47812  0.91801
N    -1.29000  0.05399  2.04482
C    -1.66514  -1.02833  2.98808
C    -1.33919  -0.70547  4.46843
O    -0.16697  -0.85420  4.97766
H    -2.08412  0.50312  1.59285
H    -2.76048  -1.05446  2.92013
C    -1.13933  -2.44177  2.57437
C    -1.85331  -3.08892  1.42226
N    -2.90877  -3.98713  1.57918
C    -1.62032  -3.03682  0.06963
C    -3.29734  -4.46178  0.38912
N    -2.52402  -3.88496  -0.53371
H    -1.20849  -3.09961  3.45353
H    -0.07269  -2.39214  2.32030
H    -3.31096  -4.30570  2.45936
H    -0.87577  -2.49969  -0.50511
H    -4.08673  -5.18628  0.21054
H    -2.58822  -4.07219  -1.53548
N    -2.33960  -0.34289  5.24581
C    -2.25308  -0.01802  6.67655
H    -3.27389  -0.30560  4.83874
H    -2.81108  0.90859  6.85703
H    -1.20815  0.09922  6.96968
H    -2.71133  -0.82841  7.25990
Cd    1.65079  -0.41952  4.00356
