31
Energy: -173740.9967075  eV PBE+vdW (tier 2 basis)
C    -1.46669  1.36677  -0.18075
C    -1.12474  0.69329  1.09279
O    -0.09050  -0.06016  1.13785
H    -1.54236  0.58210  -0.95445
H    -0.64601  2.02022  -0.51162
H    -2.41462  1.91089  -0.14184
N    -1.90293  0.80559  2.20854
C    -2.32340  2.06455  2.82405
C    -1.11233  2.58757  3.68042
O    -0.13655  1.81206  3.99598
H    -1.72926  0.06610  2.89331
H    -2.51054  2.79508  2.02443
C    -3.59457  1.88305  3.70042
C    -4.87407  1.58763  2.96435
N    -5.75659  0.59189  3.37447
C    -5.50680  2.22780  1.92621
C    -6.87145  0.62004  2.63356
N    -6.72470  1.60701  1.74705
H    -3.74048  2.79607  4.29742
H    -3.40494  1.08910  4.43912
H    -5.62268  -0.05278  4.15212
H    -5.21658  3.08040  1.32430
H    -7.73119  -0.03540  2.73686
H    -7.42816  1.86630  1.05414
N    -1.14171  3.83134  4.10838
C    -0.12079  4.50421  4.92708
H    -1.95952  4.39609  3.87646
H    0.19650  5.42019  4.41322
H    0.72863  3.83730  5.08218
H    -0.56128  4.77422  5.89592
Cd    1.00934  0.32147  2.94804
