31
Energy: -173740.9966073  eV PBE+vdW (tier 2 basis)
C    -1.28465  3.23748  0.55162
C    -0.60659  2.26120  1.43473
O    0.36165  2.65901  2.17177
H    -0.50433  3.71667  -0.06578
H    -1.72960  4.05422  1.13919
H    -2.02399  2.77977  -0.11176
N    -0.94445  0.93895  1.45336
C    -2.29268  0.41288  1.66523
C    -2.55690  0.42989  3.21573
O    -1.59536  0.57941  4.05597
H    -0.21621  0.34448  1.85615
H    -3.00965  1.10116  1.19582
C    -2.45437  -1.01812  1.07913
C    -2.42906  -1.12596  -0.42206
N    -1.67131  -2.08435  -1.08966
C    -3.15760  -0.49362  -1.40045
C    -1.92197  -2.04695  -2.40441
N    -2.81907  -1.07856  -2.60211
H    -3.40408  -1.44003  1.44150
H    -1.67483  -1.66711  1.50705
H    -1.04159  -2.76281  -0.66369
H    -3.90240  0.29120  -1.34695
H    -1.47988  -2.68504  -3.16391
H    -3.20477  -0.82985  -3.51402
N    -3.78755  0.24539  3.64296
C    -4.23092  0.21973  5.04588
H    -4.51404  0.06931  2.94843
H    -3.46822  0.66934  5.68449
H    -4.40220  -0.82046  5.35491
H    -5.17194  0.77582  5.12294
Cd    0.16358  1.81896  4.14392
