31
Energy: -173740.7540794  eV PBE+vdW (tier 2 basis)
C    -0.29068  0.54200  0.18061
C    -0.15031  0.23344  1.62437
O    0.98240  0.46430  2.17595
H    -1.32906  0.64658  -0.14094
H    0.23659  -0.21143  -0.42657
H    0.24704  1.48578  -0.00619
N    -1.17814  -0.19452  2.41642
C    -2.06614  -1.36236  2.26941
C    -1.26865  -2.59593  2.81001
O    0.01820  -2.59599  2.79612
H    -0.99607  0.00794  3.40258
H    -2.90327  -1.18612  2.96181
C    -2.64611  -1.63511  0.86442
C    -3.70337  -0.66965  0.40056
N    -4.43872  -0.90848  -0.75884
C    -4.19516  0.50706  0.90817
C    -5.33599  0.06678  -0.95076
N    -5.19605  0.93082  0.05574
H    -3.09563  -2.63949  0.89506
H    -1.83864  -1.70974  0.12051
H    -4.33811  -1.70461  -1.38780
H    -3.92869  1.07583  1.79015
H    -6.04416  0.13731  -1.77155
H    -5.75731  1.77588  0.17037
N    -1.89511  -3.66066  3.26785
C    -3.32799  -3.96670  3.34549
H    -1.26864  -4.40369  3.59446
H    -3.60312  -4.67995  2.55630
H    -3.93620  -3.06137  3.26327
H    -3.52467  -4.43600  4.31698
Cd    1.61872  -1.24985  3.30932
