31
Energy: -173741.0844809  eV PBE+vdW (tier 2 basis)
C    -1.36942  -0.61366  -0.54480
C    -1.00806  -0.17117  0.83011
O    0.19188  0.20932  1.03218
H    -0.69865  -1.42724  -0.85575
H    -1.18893  0.22067  -1.24063
H    -2.41224  -0.93750  -0.63523
N    -1.96199  -0.17565  1.78976
C    -1.81274  0.40156  3.12522
C    -1.03193  -0.54134  4.08577
O    0.18523  -0.21988  4.36850
H    -2.86798  -0.54531  1.51170
H    -1.10489  1.23608  3.00759
C    -3.06936  1.17316  3.65497
C    -4.44063  0.57406  3.78432
N    -5.04884  0.31605  5.01253
C    -5.42496  0.36506  2.84581
C    -6.33039  -0.03146  4.83738
N    -6.56340  -0.01677  3.52290
H    -3.16519  2.03936  2.98344
H    -2.77534  1.60160  4.62460
H    -4.63046  0.44760  5.93244
H    -5.43007  0.51022  1.77153
H    -7.04815  -0.26703  5.61829
H    -7.46906  -0.22168  3.09681
N    -1.50773  -1.64402  4.62672
C    -2.80792  -2.29805  4.49221
H    -0.82757  -2.13719  5.21529
H    -3.33137  -2.29379  5.45664
H    -2.64078  -3.34270  4.19954
H    -3.41843  -1.80791  3.73110
Cd    1.41033  0.47662  2.76306
