31
Energy: -173741.4152451  eV PBE+vdW (tier 2 basis)
C    0.53854  4.00260  1.75079
C    0.01260  2.80705  2.46972
O    0.48277  1.66428  2.13106
H    0.01987  4.93356  2.00423
H    0.46579  3.82634  0.66728
H    1.61189  4.10978  1.97037
N    -0.93228  2.99577  3.40882
C    -1.79407  2.05591  4.17008
C    -1.04193  1.24258  5.25583
O    -0.31606  0.21427  4.99011
H    -1.15100  3.97738  3.56755
H    -2.46427  2.72554  4.72349
C    -2.68009  1.13634  3.28020
C    -3.86454  1.81168  2.63711
N    -4.28893  1.50322  1.34709
C    -4.80887  2.68048  3.12941
C    -5.43048  2.14372  1.06282
N    -5.74944  2.86553  2.13830
H    -3.04918  0.31354  3.91383
H    -2.07038  0.66486  2.49779
H    -3.84113  0.85788  0.69879
H    -4.91470  3.15992  4.09502
H    -5.98803  2.08619  0.13257
H    -6.57969  3.45570  2.21006
N    -1.23798  1.58543  6.51271
C    -0.65746  0.92986  7.69264
H    -1.87828  2.35499  6.70641
H    -0.25719  1.70361  8.35877
H    0.13155  0.24078  7.38642
H    -1.44574  0.37760  8.22241
Cd    0.94172  -0.01638  3.31833
