31
Energy: -173740.6632368  eV PBE+vdW (tier 2 basis)
C    -0.04178  -0.77517  1.57359
C    0.12845  0.64666  1.15993
O    1.29495  1.19607  1.05655
H    0.31369  -1.43380  0.76504
H    -1.07250  -1.05456  1.80844
H    0.56864  -0.97147  2.46632
N    -0.89255  1.44984  0.86757
C    -2.33071  1.13080  0.74624
C    -2.80894  1.85208  -0.54594
O    -2.57613  3.06340  -0.67155
H    -0.63983  2.39587  0.56211
H    -2.43416  0.04608  0.62566
C    -3.18153  1.51185  1.99002
C    -3.25182  2.92040  2.50725
N    -3.23222  4.07975  1.75265
C    -3.51375  3.32566  3.80660
C    -3.46849  5.14342  2.53061
N    -3.64357  4.69118  3.78051
H    -2.86503  0.87360  2.82750
H    -4.21218  1.18538  1.75973
H    -3.03262  4.08227  0.73636
H    -3.63685  2.75079  4.71780
H    -3.50876  6.18026  2.21078
H    -3.85204  5.28309  4.58598
N    -3.46498  1.11735  -1.46330
C    -4.03401  1.66534  -2.68603
H    -3.62253  0.12696  -1.28132
H    -3.64182  2.67140  -2.85537
H    -5.13393  1.70550  -2.60865
H    -3.78912  0.99872  -3.52519
Cd    3.29547  0.45565  1.23091
