31
Energy: -173741.0003479  eV PBE+vdW (tier 2 basis)
 C   -1.94011    3.65439    0.60429
 C   -1.10598    2.72854    1.40524
 O   -0.17362    3.21113    2.13724
 H   -1.25709    4.22406   -0.05142
 H   -2.41660    4.40841    1.24745
 H   -2.68388    3.14914   -0.01913
 N   -1.26313    1.37322    1.35282
 C   -2.52695    0.66266    1.57211
 C   -2.82584    0.71838    3.11293
 O   -1.88263    0.91715    3.96360
 H   -0.44940    0.86003    1.70061
 H   -3.32890    1.19517    1.04057
 C   -2.44965   -0.80791    1.09808
 C   -2.33987   -1.03777   -0.38449
 N   -2.41264   -2.32682   -0.90791
 C   -2.17318   -0.21399   -1.46862
 C   -2.30002   -2.29619   -2.24126
 N   -2.15499   -1.01758   -2.59190
 H   -3.35233   -1.32412    1.46046
 H   -1.60785   -1.30544    1.61059
 H   -2.53698   -3.18943   -0.37888
 H   -2.06094    0.85895   -1.54482
 H   -2.32471   -3.15244   -2.90912
 H   -2.04803   -0.69493   -3.55417
 N   -4.06026    0.50757    3.51649
 C   -4.53782    0.49660    4.90767
 H   -4.76417    0.30098    2.80653
 H   -4.74493   -0.53848    5.21187
 H   -5.46605    1.07703    4.96279
 H   -3.77823    0.92453    5.56436
Cd   -0.23026    2.29215    4.08399
