31
Energy: -173740.9966540  eV PBE+vdW (tier 2 basis)
C    -1.59522  3.43883  0.29537
C    -0.86772  2.54826  1.22850
O    0.06833  3.03859  1.95139
H    -2.28497  2.90375  -0.36346
H    -0.83943  3.95325  -0.32366
H    -2.11236  4.24059  0.84364
N    -1.12762  1.21105  1.31077
C    -2.44564  0.61927  1.53829
C    -2.73071  0.70621  3.08266
O    -1.78938  0.95219  3.92312
H    -0.37072  0.68123  1.74930
H    -3.19504  1.23714  1.02369
C    -2.51665  -0.84908  1.03236
C    -2.46572  -1.03998  -0.45989
N    -1.63784  -1.98174  -1.06496
C    -3.22337  -0.51512  -1.47907
C    -1.87508  -2.03666  -2.38165
N    -2.83250  -1.14371  -2.64214
H    -3.44514  -1.30442  1.40889
H    -1.70689  -1.42672  1.50419
H    -0.96975  -2.59136  -0.59555
H    -4.01944  0.21966  -1.47689
H    -1.38278  -2.68631  -3.09930
H    -3.22327  -0.97407  -3.56996
N    -3.95544  0.47945  3.50662
C    -4.41602  0.50803  4.90382
H    -4.66228  0.22720  2.81527
H    -4.54089  -0.52097  5.26757
H    -5.38389  1.02053  4.94004
H    -3.68466  1.02847  5.52499
Cd    -0.10292  2.29140  3.96304
