31
Energy: -173741.2608779  eV PBE+vdW (tier 2 basis)
C    -0.13328  0.96229  0.01615
C    -0.10615  0.58264  1.45570
O    1.01572  0.65527  2.06308
H    0.58523  0.34227  -0.53913
H    0.21502  2.00269  -0.07924
H    -1.12767  0.87427  -0.43622
N    -1.25737  0.20208  2.04767
C    -1.48305  -0.00090  3.48757
C    -0.91529  -1.36704  3.95999
O    0.18356  -1.36380  4.63832
H    -2.07279  0.18791  1.43692
H    -0.86760  0.74072  4.01932
C    -2.96775  0.33269  3.84418
C    -3.26510  0.66384  5.28019
N    -3.93860  -0.18098  6.16103
C    -3.09537  1.84194  5.96770
C    -4.17206  0.44537  7.32174
N    -3.65490  1.67160  7.21437
H    -3.64809  -0.45690  3.50189
H    -3.22411  1.22429  3.25206
H    -4.28125  -1.11872  5.96365
H    -2.66211  2.78770  5.66304
H    -4.69190  0.03567  8.18284
H    -3.70181  2.38173  7.94688
N    -1.47917  -2.53394  3.71656
C    -2.68178  -2.89621  2.95650
H    -0.95292  -3.32562  4.10110
H    -2.94871  -2.12465  2.23094
H    -3.52471  -3.09994  3.63007
H    -2.46163  -3.81960  2.40722
Cd    1.78162  -0.18768  3.85093
