31
Energy: -173741.4628741  eV PBE+vdW (tier 2 basis)
C    -0.65440  -1.38191  0.04511
C    -0.92300  -0.15231  0.84608
O    -0.25844  -0.00509  1.92976
H    -0.67540  -2.25642  0.71121
H    0.37051  -1.32807  -0.35444
H    -1.35658  -1.53124  -0.78246
N    -1.85186  0.70923  0.39100
C    -2.46458  1.92621  0.97853
C    -1.49544  3.13269  1.06259
O    -0.63458  3.27720  2.00784
H    -2.24599  0.43986  -0.50830
H    -3.22894  2.20542  0.24175
C    -3.19735  1.67538  2.33704
C    -4.51652  0.96375  2.24127
N    -5.74335  1.62457  2.18133
C    -4.82694  -0.37386  2.27143
C    -6.74900  0.74069  2.17923
N    -6.20091  -0.47570  2.22754
H    -3.35065  2.64973  2.82441
H    -2.55547  1.09859  3.01530
H    -5.89335  2.63212  2.19696
H    -4.19563  -1.25024  2.35234
H    -7.81013  0.97138  2.15250
H    -6.73487  -1.34578  2.25127
N    -1.63089  4.08486  0.16167
C    -0.83532  5.31759  0.07611
H    -2.37145  3.98648  -0.53252
H    -1.45120  6.16928  0.39580
H    -0.53777  5.46709  -0.96856
H    0.04362  5.23943  0.71858
Cd    0.49188  1.72310  2.87863
