31
Energy: -173741.3500651  eV PBE+vdW (tier 2 basis)
C    -0.34249  1.35889  0.28547
C    -0.25931  0.95483  1.71684
O    0.73029  1.38837  2.39740
H    -1.25521  1.01370  -0.21277
H    0.53720  0.97065  -0.24975
H    -0.28213  2.45558  0.22064
N    -1.23335  0.17147  2.22571
C    -1.42709  -0.21764  3.63007
C    -0.45994  -1.36524  4.04774
O    0.61061  -1.04937  4.69955
H    -1.93131  -0.14401  1.55489
H    -1.10575  0.63365  4.24854
C    -2.93064  -0.48356  3.95423
C    -3.80152  0.72269  4.16359
N    -4.06142  1.27832  5.41632
C    -4.59030  1.42509  3.28527
C    -4.96238  2.26343  5.31095
N    -5.28304  2.36377  4.01868
H    -2.97567  -1.10999  4.85727
H    -3.38491  -1.09041  3.15991
H    -3.69177  0.96047  6.31079
H    -4.74457  1.31358  2.21858
H    -5.36445  2.85943  6.12516
H    -5.96567  3.02517  3.64511
N    -0.66548  -2.64399  3.80933
C    -1.77014  -3.34817  3.14350
H    0.07905  -3.24675  4.17542
H    -1.36817  -4.28495  2.74286
H    -2.16592  -2.76392  2.30771
H    -2.56647  -3.59401  3.85806
Cd    1.76294  0.62389  4.08793
