31
Energy: -173741.4616372  eV PBE+vdW (tier 2 basis)
C    0.58780  1.12535  0.46661
C    0.32794  0.14538  1.56109
O    1.34202  -0.45286  2.06213
H    1.26546  0.67066  -0.27002
H    1.12821  1.98897  0.88538
H    -0.32045  1.47773  -0.03456
N    -0.94812  -0.05830  1.93853
C    -1.57623  -1.03158  2.86573
C    -1.25580  -0.76553  4.35865
O    -0.16258  -1.14582  4.92069
H    -1.61357  0.53811  1.45061
H    -2.64997  -0.83516  2.74931
C    -1.33222  -2.52653  2.47761
C    -2.11226  -3.02631  1.29514
N    -3.33115  -3.69525  1.40627
C    -1.81769  -3.03126  -0.04650
C    -3.75676  -4.09147  0.20030
N    -2.84635  -3.68678  -0.68844
H    -1.57307  -3.14742  3.35335
H    -0.26778  -2.69816  2.27212
H    -3.82518  -3.92107  2.26821
H    -0.95792  -2.65677  -0.58858
H    -4.66650  -4.64570  -0.01206
H    -2.90506  -3.86402  -1.69236
N    -2.19346  -0.19594  5.08877
C    -2.10621  0.12231  6.52080
H    -3.08093  0.02692  4.63852
H    -2.45649  1.15072  6.67064
H    -1.07617  0.01291  6.86507
H    -2.75801  -0.56039  7.08305
Cd    1.74649  -1.09974  4.02896
