31
Energy: -173741.3979470  eV PBE+vdW (tier 2 basis)
C    -1.34926  -0.93038  -0.12718
C    -0.96273  -0.27457  1.15257
O    0.22849  0.17532  1.25025
H    -1.20583  -0.20377  -0.94335
H    -2.38649  -1.28246  -0.14215
H    -0.66496  -1.76475  -0.33633
N    -1.88723  -0.16410  2.13109
C    -1.87290  0.74092  3.29677
C    -1.22249  0.10317  4.55143
O    0.01358  -0.24029  4.53376
H    -2.78363  -0.59480  1.91296
H    -1.18530  1.56656  3.04254
C    -3.24319  1.44356  3.46685
C    -4.50542  0.63053  3.61515
N    -5.74595  1.25434  3.49225
C    -4.79107  -0.68884  3.87869
C    -6.73555  0.37217  3.67307
N    -6.16821  -0.81199  3.90567
H    -3.36378  2.08936  2.58269
H    -3.15633  2.14406  4.31434
H    -5.90674  2.24376  3.29977
H    -4.14994  -1.54503  4.05215
H    -7.80107  0.58362  3.63630
H    -6.68735  -1.67433  4.07815
N    -1.89775  -0.05531  5.67045
C    -1.31719  -0.56736  6.92622
H    -2.88194  0.19999  5.68630
H    -2.03628  -0.39420  7.73089
H    -0.38295  -0.03813  7.14425
H    -1.11147  -1.64143  6.83760
Cd    1.42093  0.18237  2.99584
