31
Energy: -173740.9973183  eV PBE+vdW (tier 2 basis)
C    -1.59095  3.56930  0.43933
C    -0.97830  2.67291  1.44618
O    -0.10150  3.14866  2.24858
H    -2.12075  4.40137  0.92666
H    -2.24219  3.04614  -0.26664
H    -0.76618  4.04159  -0.12309
N    -1.27880  1.34327  1.51646
C    -2.62682  0.78654  1.62781
C    -3.04792  0.89425  3.13951
O    -2.18048  1.12662  4.05964
H    -0.57914  0.80107  2.02885
H    -3.31035  1.41866  1.04356
C    -2.69083  -0.68411  1.12696
C    -2.51192  -0.89089  -0.35321
N    -1.65668  -1.85798  -0.87445
C    -3.16512  -0.36094  -1.43985
C    -1.77928  -1.92282  -2.20612
N    -2.68899  -1.01164  -2.55803
H    -3.66145  -1.11138  1.42131
H    -1.94275  -1.27857  1.67369
H    -1.04655  -2.47664  -0.34223
H    -3.94089  0.39149  -1.51458
H    -1.24138  -2.59164  -2.87148
H    -2.99341  -0.84436  -3.51808
N    -4.31084  0.69880  3.45196
C    -4.89779  0.74917  4.80026
H    -4.95731  0.45851  2.69996
H    -4.19653  1.21768  5.49298
H    -5.12125  -0.27221  5.13730
H    -5.83112  1.32190  4.75248
Cd    -0.47454  2.42728  4.24228
