31
Energy: -173741.3050711  eV PBE+vdW (tier 2 basis)
C    2.12739  -1.06603  1.70267
C    1.16009  -1.14666  2.83547
O    1.62025  -1.49164  3.97760
H    2.71461  -1.99492  1.66314
H    2.84765  -0.25880  1.90780
H    1.65434  -0.88870  0.73049
N    -0.13566  -0.87680  2.58215
C    -1.35000  -0.95765  3.42894
C    -1.36932  0.10137  4.55488
O    -0.81331  -0.11129  5.70187
H    -0.31001  -0.58459  1.62251
H    -2.16266  -0.69306  2.74420
C    -1.66973  -2.38895  3.98138
C    -2.49963  -3.26302  3.08377
N    -1.99411  -4.23756  2.22488
C    -3.86650  -3.35981  2.97715
C    -2.99624  -4.89768  1.62799
N    -4.13560  -4.36448  2.07447
H    -2.22915  -2.27012  4.92001
H    -0.74268  -2.91451  4.24768
H    -1.01581  -4.48364  2.09154
H    -4.65943  -2.82221  3.48430
H    -2.89891  -5.71681  0.92164
H    -5.06651  -4.67968  1.79663
N    -2.03609  1.22898  4.41129
C    -2.86337  1.75134  3.31760
H    -1.99496  1.83124  5.24148
H    -2.71975  1.18932  2.39173
H    -2.57508  2.79563  3.14245
H    -3.92082  1.72791  3.61299
Cd    1.11001  -0.93419  5.95231
