11
Energy: -232878.266261 eV PBE+vdW (tier 2 basis)
N    0.605816  -0.419449  0.073938
C    0.279852  0.070043  1.437862
C    1.461894  -0.096046  2.377770
O    2.583098  -0.417869  1.942443
H    0.128614  -1.315272  -0.070586
H    0.165511  0.205527  -0.607965
H    0.038720  1.144599  1.407338
H    -0.605641  -0.429671  1.860516
O    1.333183  0.123270  3.656831
H    0.426583  0.362860  3.940837
Ba    3.437369  -0.854992  -0.300984
