11
Energy: -232878.903389 eV PBE+vdW (tier 2 basis)
N    0.023949  -0.111473  0.108170
C    -0.017734  -0.457059  1.578158
C    1.395447  -0.341186  2.151723
O    1.565727  -0.592138  3.379345
H    1.021602  0.109133  -0.107422
H    -0.281730  -0.888515  -0.492604
H    -0.696051  0.225809  2.102941
H    -0.396852  -1.477108  1.710888
O    2.339735  0.003413  1.365326
H    -0.554314  0.706699  -0.125063
Ba    4.034221  -0.162575  3.380537
