11
Energy: -232878.4052 eV PBE+vdW (tier 2 basis)
N    0.378399  -0.227764  0.053608
C    -0.003728  0.235429  1.413548
C    1.092927  -0.040660  2.417171
O    2.243170  -0.385755  2.071029
H    -0.123682  -1.101014  -0.140010
H    -0.009381  0.430491  -0.629291
H    -0.171158  1.324045  1.415411
H    -0.943410  -0.209086  1.772299
O    0.728183  0.139620  3.653776
H    1.464249  -0.008635  4.288116
Ba    3.163433  -0.730672  -0.197657
