29
Energy: -19156.5097877 eV PBE+vdW (tier 2 basis)
C    -0.346249  0.614237  -0.019320
C    -0.286487  -0.174191  1.273512
O    0.697078  -0.844481  1.586332
H    0.493936  1.319250  -0.038366
H    -1.281779  1.170027  -0.156573
H    -0.212311  -0.077216  -0.860356
N    -1.393383  -0.070392  2.075309
C    -1.530569  -0.825684  3.313824
C    -2.498708  -1.999398  3.064207
O    -3.703852  -1.786706  2.911441
H    -2.230873  0.364840  1.702424
H    -0.519719  -1.177724  3.550478
C    -2.061388  0.045204  4.461122
C    -1.135142  1.215782  4.791080
C    -1.540640  2.150566  5.929137
O    -0.723478  2.888674  6.467963
N    -2.859478  2.145444  6.292379
H    -2.188217  -0.603330  5.341891
H    -3.070444  0.383928  4.175983
H    -1.002081  1.853578  3.902960
H    -0.128483  0.857515  5.047041
H    -3.541332  1.521296  5.883592
H    -3.147856  2.764907  7.039565
N    -1.970839  -3.250332  2.993686
C    -0.576680  -3.661589  3.118662
H    -2.668575  -3.970862  2.832040
H    -0.462747  -4.640990  2.640869
H    -0.264115  -3.757870  4.169885
H    0.090768  -2.958206  2.605664
