29
Energy: -19156.340104 eV PBE+vdW (tier 2 basis)
C    0.255150  -0.429250  0.202388
C    0.012701  0.280450  1.518734
O    0.885436  0.979128  2.037017
H    1.295311  -0.768543  0.165477
H    0.108274  0.299423  -0.607012
H    -0.415302  -1.280789  0.031100
N    -1.225187  0.054146  2.070016
C    -1.812178  0.846095  3.146463
C    -2.181001  2.254151  2.584470
O    -1.686182  2.669361  1.540385
H    -1.884874  -0.415802  1.461492
H    -2.765776  0.351932  3.383222
C    -0.906454  0.755867  4.419486
C    -0.848476  1.931423  5.399489
C    -0.381494  3.297226  4.886566
O    -0.802872  4.332092  5.406443
N    0.552319  3.285943  3.898935
H    0.108278  0.538798  4.072523
H    -1.230090  -0.136993  4.973267
H    -0.142369  1.651436  6.197904
H    -1.802283  2.108419  5.906716
H    0.725636  2.464198  3.312028
H    0.791271  4.188685  3.504133
N    -3.119670  2.985965  3.250816
C    -3.904951  2.692432  4.435271
H    -3.237397  3.909951  2.843659
H    -3.827791  1.633663  4.700971
H    -4.964914  2.909345  4.242178
H    -3.572317  3.292089  5.295218
