29
Energy: -19156.9493429 eV PBE+vdW (tier 2 basis)
C    1.093955  0.412278  0.229567
C    0.572282  0.356422  1.652864
O    1.312495  0.506061  2.629904
H    1.581958  1.381578  0.068754
H    0.314904  0.271712  -0.529363
H    1.859580  -0.363768  0.105473
N    -0.764238  0.134236  1.779607
C    -1.408749  -0.002515  3.068486
C    -2.743716  -0.732865  2.818413
O    -3.266863  -0.711401  1.698194
H    -1.377395  -0.027077  0.981916
H    -0.759488  -0.615032  3.712801
C    -1.596335  1.385982  3.730025
C    -2.043112  1.361323  5.205744
C    -1.241158  0.365390  6.032385
O    -1.662805  -0.771126  6.278847
N    -0.022913  0.783544  6.466523
H    -2.319937  1.967742  3.141224
H    -0.625414  1.893115  3.646514
H    -3.096036  1.068831  5.291436
H    -1.947460  2.373265  5.624758
H    0.395198  1.631708  6.105311
H    0.599114  0.087934  6.863057
N    -3.268562  -1.353366  3.898410
C    -4.546226  -2.038421  3.857996
H    -2.756384  -1.309441  4.788524
H    -5.210518  -1.664599  4.649028
H    -4.420122  -3.122372  3.991861
H    -5.005777  -1.854814  2.881462
