29
Energy: -19155.75656 eV PBE+vdW (tier 2 basis)
C    -1.006341  2.755182  0.143330
C    -1.399605  1.611771  1.055975
O    -2.149921  0.699182  0.678799
H    -1.916985  3.254371  -0.212103
H    -0.496980  2.338566  -0.735516
H    -0.347659  3.490570  0.621383
N    -0.856635  1.640471  2.311341
C    -1.179654  0.601572  3.295471
C    -2.518392  0.967251  3.986690
O    -2.595660  1.639527  5.027539
H    -0.428676  2.499618  2.655574
H    -1.359664  -0.301149  2.693140
C    0.003111  0.279382  4.229760
C    0.378906  1.238122  5.382567
C    0.748363  2.658859  4.960542
O    1.908746  3.023531  4.777486
N    -0.330161  3.490595  4.754378
H    0.880638  0.136648  3.579761
H    -0.209386  -0.700774  4.683840
H    1.272798  0.832154  5.873205
H    -0.439950  1.270997  6.112873
H    -1.259635  3.174333  5.046703
H    -0.139275  4.483516  4.653992
N    -3.602454  0.508869  3.306363
C    -4.961178  0.878448  3.673658
H    -3.419605  0.167947  2.357934
H    -5.358528  1.658202  3.005777
H    -4.942630  1.265751  4.698118
H    -5.618589  0.000487  3.626419
