29
Energy: -19156.3079199 eV PBE+vdW (tier 2 basis)
C    0.616029  -0.723725  0.386234
C    0.241402  -0.811233  1.855567
O    0.878930  -1.531977  2.627774
H    1.658751  -0.390377  0.311367
H    -0.017427  -0.050371  -0.203890
H    0.564934  -1.730223  -0.047055
N    -0.810848  -0.024859  2.224150
C    -1.518145  0.100072  3.508892
C    -1.257290  1.397472  4.312469
O    -2.188012  1.842101  4.983475
H    -1.222000  0.520869  1.475979
H    -2.571381  0.228983  3.223679
C    -1.479730  -1.144211  4.424860
C    -0.320413  -1.228851  5.436512
C    -0.096975  -2.671634  5.884236
O    -0.569739  -3.135834  6.917388
N    0.667528  -3.399769  5.016468
H    -1.493886  -2.031358  3.778325
H    -2.424095  -1.148946  4.983986
H    -0.547871  -0.632560  6.327282
H    0.607676  -0.856645  4.988245
H    0.952214  -3.003955  4.123925
H    0.775905  -4.391499  5.188222
N    -0.048916  2.031332  4.288332
C    1.221485  1.680246  3.670889
H    -0.065971  2.869454  4.862257
H    2.021583  2.176277  4.232089
H    1.283548  2.010824  2.622653
H    1.413126  0.602775  3.709882
