29
Energy: -19156.4624789 eV PBE+vdW (tier 2 basis)
C    0.991666  -1.237500  0.938247
C    0.581461  0.037201  1.655911
O    1.398024  0.834531  2.112419
H    1.876820  -1.648788  1.434846
H    1.274969  -0.994987  -0.095467
H    0.195424  -1.992101  0.912708
N    -0.770423  0.249685  1.708403
C    -1.380721  1.301689  2.517723
C    -0.737039  2.699306  2.327285
O    -0.460665  3.402799  3.294676
H    -1.376397  -0.538497  1.491286
H    -2.418336  1.392856  2.149833
C    -1.427904  0.949309  4.013225
C    -2.332556  -0.252131  4.352222
C    -1.866241  -1.582749  3.773338
O    -2.307539  -2.047185  2.718717
N    -0.904910  -2.229752  4.490411
H    -1.790109  1.831320  4.555442
H    -0.399242  0.782786  4.363126
H    -3.348025  -0.083687  3.969126
H    -2.405498  -0.334823  5.446901
H    -0.491843  -1.828198  5.321531
H    -0.504070  -3.078433  4.109708
N    -0.601427  3.176053  1.053273
C    -0.842427  2.524803  -0.220964
H    -0.129378  4.074574  1.036008
H    -0.987998  3.299664  -0.983571
H    -1.753841  1.916965  -0.189659
H    -0.007431  1.879365  -0.535256
