29
Energy: -19156.5734534 eV PBE+vdW (tier 2 basis)
C    -0.142161  0.147896  -0.243121
C    -0.225440  0.821733  1.112103
O    0.698874  1.473068  1.588280
H    0.813494  0.418016  -0.698997
H    -0.963948  0.451437  -0.905889
H    -0.192949  -0.945811  -0.142404
N    -1.411812  0.680317  1.804912
C    -2.568836  -0.127885  1.438638
C    -3.464279  0.513017  0.353166
O    -4.224728  -0.182662  -0.321224
H    -1.378767  1.063679  2.746654
H    -2.238164  -1.085520  1.007749
C    -3.387167  -0.409393  2.714393
C    -4.529305  -1.403028  2.528495
C    -5.425772  -1.473842  3.762341
O    -5.428045  -0.620420  4.643033
N    -6.243765  -2.570269  3.812148
H    -3.795643  0.533477  3.107707
H    -2.692743  -0.789491  3.479061
H    -4.141077  -2.405045  2.289300
H    -5.152526  -1.112349  1.668365
H    -6.937231  -2.614975  4.548892
H    -6.314194  -3.220770  3.040917
N    -3.364885  1.862644  0.244102
C    -4.153880  2.640261  -0.690225
H    -2.663638  2.319757  0.817884
H    -4.786399  3.368762  -0.164381
H    -4.794976  1.945250  -1.242997
H    -3.510921  3.177601  -1.401042
