29
Energy: -19155.5039876 eV PBE+vdW (tier 2 basis)
C    -1.511983  -2.089803  -1.142620
C    -0.917728  -1.297791  0.010649
O    -0.105204  -0.385454  -0.162355
H    -0.721866  -2.715519  -1.580007
H    -1.844005  -1.389200  -1.918269
H    -2.351020  -2.734211  -0.849888
N    -1.342017  -1.670588  1.257786
C    -0.786252  -1.082661  2.473599
C    -0.948484  -2.024741  3.684236
O    -0.004123  -2.206418  4.455467
H    -2.023185  -2.417513  1.354483
H    0.300404  -1.013414  2.331365
C    -1.282912  0.374487  2.769149
C    -2.622967  0.814223  2.145318
C    -3.878627  0.240966  2.779479
O    -4.166600  -0.965453  2.762161
N    -4.706958  1.142684  3.377196
H    -0.523631  1.053724  2.360283
H    -1.293353  0.527905  3.859050
H    -2.640533  0.518980  1.085589
H    -2.660913  1.913043  2.166609
H    -4.512621  2.136522  3.379921
H    -5.568738  0.804885  3.795341
N    -2.164390  -2.631864  3.818800
C    -2.439104  -3.473301  4.976363
H    -2.965984  -2.177328  3.358984
H    -1.595154  -4.153616  5.140869
H    -3.346647  -4.057203  4.782345
H    -2.580405  -2.882338  5.896096
