29
Energy: -19156.5781978 eV PBE+vdW (tier 2 basis)
C    -0.964904  -1.834957  0.793089
C    -0.161022  -1.646021  2.070921
O    0.675745  -2.471022  2.430969
H    -0.655297  -2.784340  0.348478
H    -0.771227  -1.027669  0.072503
H    -2.047715  -1.861236  0.972685
N    -0.406458  -0.522242  2.819526
C    -1.260000  0.604761  2.501974
C    -0.426817  1.895771  2.607663
O    0.507202  1.972262  3.405960
H    0.261593  -0.357603  3.572321
H    -1.643687  0.481124  1.483840
C    -2.457628  0.721894  3.477419
C    -3.433736  -0.444740  3.381396
C    -4.222685  -0.454542  2.072828
O    -4.268184  0.506140  1.306817
N    -4.885869  -1.617711  1.807579
H    -2.993097  1.660848  3.281028
H    -2.056863  0.785937  4.499092
H    -4.163683  -0.388966  4.205056
H    -2.904847  -1.402323  3.508519
H    -4.873694  -2.402490  2.445261
H    -5.473370  -1.665484  0.984000
N    -0.809420  2.950184  1.835739
C    -1.808546  2.977109  0.775564
H    -0.219863  3.768801  1.956548
H    -2.181743  4.002456  0.669396
H    -2.665798  2.336714  1.014138
H    -1.393517  2.661100  -0.194955
