29
Energy: -19156.6112116 eV PBE+vdW (tier 2 basis)
C    0.144624  -0.962055  0.267255
C    -0.123216  -0.082542  1.474388
O    0.776340  0.436513  2.125062
H    0.915515  -1.696573  0.527063
H    0.548427  -0.335272  -0.538763
H    -0.744158  -1.485935  -0.106385
N    -1.453826  0.082975  1.798046
C    -1.893187  1.066644  2.784459
C    -2.162489  0.469549  4.183954
O    -2.522662  1.190307  5.115283
H    -2.145953  -0.250027  1.134837
H    -1.047850  1.758936  2.924915
C    -3.119351  1.826800  2.245520
C    -3.412066  3.144261  2.959656
C    -4.544467  3.910792  2.281964
O    -4.848298  3.762330  1.102001
N    -5.188102  4.806595  3.089782
H    -4.008123  1.176919  2.293551
H    -2.950148  2.044718  1.181625
H    -2.518008  3.789775  2.928697
H    -3.624942  2.971664  4.022224
H    -5.919534  5.382166  2.691279
H    -4.956102  4.911303  4.068108
N    -1.982641  -0.871982  4.294409
C    -2.122335  -1.580113  5.550453
H    -1.618786  -1.351964  3.478839
H    -2.811943  -2.429071  5.448901
H    -2.525827  -0.875409  6.285568
H    -1.152124  -1.950930  5.911327
