29
Energy: -19156.4849799 eV PBE+vdW (tier 2 basis)
C    0.328445  1.602427  0.686399
C    0.209914  0.587528  1.805355
O    1.126882  0.359346  2.590432
H    1.313543  2.069325  0.764037
H    -0.441280  2.384203  0.762489
H    0.240508  1.110796  -0.292287
N    -0.970564  -0.112614  1.909470
C    -2.209306  0.046224  1.163849
C    -3.262836  0.693212  2.084064
O    -3.642650  0.126959  3.106572
H    -1.023079  -0.697605  2.740797
H    -2.001103  0.692951  0.300862
C    -2.743165  -1.309802  0.662250
C    -1.990405  -1.888936  -0.547887
C    -0.472337  -1.980755  -0.402794
O    0.282773  -1.238212  -1.024074
N    -0.004884  -2.963070  0.426433
H    -3.800448  -1.189828  0.382035
H    -2.743492  -2.008204  1.512827
H    -2.164333  -1.261951  -1.431282
H    -2.397249  -2.886975  -0.771695
H    -0.625669  -3.456284  1.055217
H    0.978124  -2.930010  0.673141
N    -3.715932  1.913795  1.679102
C    -4.682046  2.686263  2.439214
H    -3.320444  2.316322  0.838187
H    -5.569052  2.916333  1.833556
H    -4.243516  3.625922  2.802942
H    -4.982499  2.079013  3.299498
