29
Energy: -19156.7431179 eV PBE+vdW (tier 2 basis)
C    -0.613591  -0.186310  -0.440342
C    -0.510658  -0.546795  1.030090
O    0.270469  -1.404145  1.443796
H    -0.862640  -1.091656  -1.007596
H    0.368102  0.157790  -0.789056
H    -1.360456  0.588420  -0.652493
N    -1.333668  0.155233  1.863003
C    -1.429323  -0.143362  3.278509
C    -2.830812  0.309423  3.716648
O    -3.475814  1.109521  3.024289
H    -2.071646  0.760029  1.507237
H    -1.315460  -1.231655  3.402799
C    -0.295575  0.535899  4.091528
C    -0.425158  2.057031  4.221454
C    -1.360254  2.474056  5.356800
O    -1.258194  2.006268  6.489425
N    -2.273256  3.442208  5.045074
H    0.639579  0.275437  3.580361
H    -0.236253  0.102283  5.098495
H    -0.719832  2.512011  3.264908
H    0.557930  2.478233  4.479541
H    -2.543586  3.584758  4.079375
H    -2.959001  3.671255  5.756377
N    -3.327852  -0.172581  4.881816
C    -2.671772  -1.005210  5.878601
H    -4.212759  0.255042  5.139452
H    -3.437986  -1.556959  6.435236
H    -2.078396  -0.401844  6.581672
H    -2.019026  -1.741461  5.396160
