29
Energy: -19156.3507444 eV PBE+vdW (tier 2 basis)
C    0.158412  0.009005  0.539871
C    -0.006014  0.076241  2.044351
O    0.954020  0.159999  2.806203
H    1.181339  0.313319  0.303500
H    -0.551565  0.643675  -0.003072
H    0.011159  -1.020741  0.184607
N    -1.282211  0.015089  2.562830
C    -2.573627  -0.070894  1.880556
C    -2.635522  -1.279557  0.909315
O    -2.958095  -1.151647  -0.276434
H    -1.291820  0.090402  3.575431
H    -3.296048  -0.304819  2.680173
C    -3.024005  1.247478  1.205340
C    -4.416524  1.736572  1.621475
C    -5.659437  0.912934  1.266888
O    -6.691777  1.038185  1.922090
N    -5.579118  0.114029  0.165265
H    -2.954983  1.136853  0.114624
H    -2.299070  2.021450  1.488925
H    -4.589573  2.728781  1.174899
H    -4.465666  1.891420  2.708560
H    -6.397518  -0.445392  -0.045883
H    -4.688766  -0.165086  -0.247593
N    -2.332971  -2.504325  1.414514
C    -2.001297  -2.888647  2.778756
H    -2.389016  -3.240951  0.717983
H    -2.175614  -3.965205  2.882113
H    -2.648798  -2.380660  3.505089
H    -0.954257  -2.674682  3.032687
