29
Energy: -19156.4274871 eV PBE+vdW (tier 2 basis)
C    0.216317  0.452783  1.080365
C    -0.500352  -0.344376  2.153121
O    0.024152  -1.316883  2.693917
H    1.280763  0.210916  1.141175
H    0.074477  1.536527  1.163378
H    -0.150757  0.156178  0.087256
N    -1.786819  0.012945  2.483883
C    -2.567355  1.194134  2.122860
C    -2.626438  1.462958  0.604778
O    -2.288937  2.542136  0.119771
H    -2.178267  -0.539578  3.244725
H    -3.593909  0.938080  2.426789
C    -2.168014  2.468585  2.886601
C    -2.036376  2.270460  4.407801
C    -3.309029  1.750532  5.062122
O    -3.775900  0.638790  4.807720
N    -3.918569  2.597451  5.940895
H    -2.909273  3.249141  2.664570
H    -1.212923  2.845962  2.497685
H    -1.715335  3.217785  4.862866
H    -1.249496  1.531299  4.616901
H    -3.529475  3.498521  6.180858
H    -4.759451  2.284576  6.411686
N    -3.102907  0.451822  -0.180177
C    -3.591318  -0.861401  0.210511
H    -3.105070  0.687104  -1.167555
H    -4.231689  -1.245415  -0.591881
H    -4.200411  -0.804182  1.121505
H    -2.778013  -1.579517  0.387696
