29
Energy: -19156.4649529 eV PBE+vdW (tier 2 basis)
C    -2.194213  1.631825  0.335847
C    -1.427301  0.929882  1.441792
O    -0.377204  0.328392  1.235293
H    -1.522864  2.341971  -0.161791
H    -3.086133  2.167861  0.683723
H    -2.494131  0.885872  -0.410971
N    -1.983539  1.025433  2.693616
C    -1.446607  0.263401  3.823165
C    -2.539932  -0.021769  4.864292
O    -2.753433  -1.181046  5.224754
H    -2.928225  1.383772  2.766636
H    -1.169437  -0.731333  3.446158
C    -0.165522  0.899646  4.411883
C    0.415053  0.107988  5.589872
C    -0.281401  0.408272  6.916686
O    -0.450737  1.559969  7.315399
N    -0.644914  -0.682492  7.654163
H    -0.345600  1.934610  4.729272
H    0.565065  0.929344  3.594111
H    1.464256  0.405574  5.733511
H    0.418885  -0.970156  5.373561
H    -0.794766  -1.569999  7.188482
H    -1.195022  -0.504433  8.487666
N    -3.284892  1.014721  5.361294
C    -2.977344  2.442685  5.400197
H    -3.940654  0.685226  6.065817
H    -3.914335  3.000238  5.517678
H    -2.508034  2.768588  4.466641
H    -2.297938  2.684750  6.231120
