29
Energy: -19156.4791807 eV PBE+vdW (tier 2 basis)
C    0.159484  1.575829  0.170114
C    -0.030544  1.690446  1.672630
O    0.621609  2.465640  2.363639
H    1.208618  1.328237  -0.033385
H    -0.038555  2.554283  -0.284675
H    -0.484393  0.825586  -0.306118
N    -0.983396  0.862096  2.208555
C    -1.310364  0.859129  3.624435
C    -0.211648  0.310391  4.565323
O    -0.040146  0.860283  5.656342
H    -1.490105  0.233230  1.596955
H    -1.389420  1.904365  3.955483
C    -2.672562  0.160277  3.815587
C    -3.040981  -0.147513  5.270286
C    -2.403941  -1.450814  5.759049
O    -2.478767  -2.488710  5.103930
N    -1.812413  -1.390479  6.988701
H    -2.690936  -0.792769  3.263034
H    -3.437809  0.807792  3.364926
H    -4.127128  -0.309467  5.333483
H    -2.799024  0.694963  5.931269
H    -1.451132  -0.497109  7.307527
H    -1.305160  -2.218491  7.283004
N    0.523272  -0.778015  4.206386
C    0.337863  -1.711114  3.104830
H    1.208082  -1.023805  4.914104
H    0.926143  -2.608991  3.322733
H    0.683814  -1.300386  2.146460
H    -0.708659  -2.030254  3.016116
