29
Energy: -19156.5305847 eV PBE+vdW (tier 2 basis)
C    -0.265389  0.297937  0.479865
C    0.327307  -0.233050  1.768254
O    1.505965  -0.042943  2.061463
H    0.564163  0.636881  -0.146633
H    -0.917708  1.158585  0.684661
H    -0.838742  -0.473590  -0.046176
N    -0.480105  -0.904831  2.668380
C    -1.830805  -1.451067  2.589516
C    -1.927034  -2.685949  1.652319
O    -1.374765  -2.721696  0.553628
H    0.073098  -1.241507  3.451102
H    -2.040852  -1.798891  3.609952
C    -2.903972  -0.394561  2.247088
C    -4.361559  -0.861380  2.454073
C    -4.645623  -1.322603  3.876006
O    -4.323867  -2.441136  4.291164
N    -5.249211  -0.414108  4.688748
H    -2.804171  -0.083575  1.199928
H    -2.703433  0.491587  2.867494
H    -4.585410  -1.705469  1.788577
H    -5.034419  -0.039760  2.170705
H    -5.526252  0.501534  4.362823
H    -5.426017  -0.665242  5.654387
N    -2.677801  -3.696952  2.166338
C    -2.963380  -4.905748  1.418362
H    -3.197546  -3.510310  3.028971
H    -2.736493  -5.796069  2.019762
H    -2.334721  -4.906553  0.521712
H    -4.019192  -4.951079  1.111284
