29
Energy: -19156.5395991 eV PBE+vdW (tier 2 basis)
C    -0.313131  0.205058  0.874625
C    -0.980154  0.077774  2.227812
O    -0.448995  0.484341  3.260736
H    0.466576  0.968224  0.944223
H    -1.008211  0.454074  0.064739
H    0.156397  -0.753393  0.611464
N    -2.194223  -0.580852  2.290354
C    -3.206207  -0.706578  1.231111
C    -2.826271  -1.731447  0.136494
O    -3.250210  -1.628901  -1.011175
H    -2.558190  -0.577751  3.240278
H    -4.072665  -1.152160  1.743010
C    -3.692293  0.625659  0.606573
C    -3.627009  1.826578  1.557076
C    -4.334331  1.583188  2.887828
O    -5.458745  1.093678  2.954187
N    -3.634905  1.966656  3.999376
H    -4.726125  0.473039  0.275440
H    -3.119668  0.849534  -0.302495
H    -4.137079  2.676814  1.079631
H    -2.588896  2.146821  1.724119
H    -4.050936  1.785919  4.905835
H    -2.643317  2.171495  3.960012
N    -2.042759  -2.756284  0.571281
C    -1.621784  -3.843392  -0.288999
H    -1.716935  -2.711968  1.530862
H    -1.964669  -4.812566  0.099005
H    -0.527629  -3.871537  -0.392779
H    -2.067829  -3.677214  -1.275459
