29
Energy: -19155.6572394 eV PBE+vdW (tier 2 basis)
C    0.327437  -1.842290  1.197877
C    0.496562  -1.804794  2.702210
O    1.142438  -2.658492  3.328167
H    1.099453  -1.204287  0.742230
H    -0.653565  -1.465684  0.878416
H    0.462214  -2.869660  0.845179
N    -0.081829  -0.736041  3.327575
C    0.215275  -0.394493  4.720871
C    -0.778044  -1.107858  5.679577
O    -1.678648  -0.504195  6.268320
H    -0.622664  -0.071582  2.776847
H    1.224328  -0.793423  4.918701
C    0.203113  1.119407  4.945898
C    1.174155  1.895688  4.038707
C    0.838435  1.952325  2.549949
O    1.665443  1.748105  1.668428
N    -0.490663  2.220241  2.240266
H    0.480432  1.295823  5.994832
H    -0.831460  1.488748  4.865261
H    2.189749  1.482209  4.101616
H    1.234241  2.939034  4.392396
H    -1.081626  2.675950  2.931191
H    -0.657348  2.484763  1.271745
N    -0.537660  -2.443898  5.779514
C    -1.411513  -3.339486  6.518424
H    0.169336  -2.827517  5.142297
H    -1.987369  -3.988320  5.840541
H    -2.109018  -2.725174  7.099150
H    -0.828204  -3.971099  7.202814
