29
Energy: -19156.6542582 eV PBE+vdW (tier 2 basis)
C    -1.155181  0.305015  -0.866853
C    -1.073722  1.021979  0.473127
O    -0.377020  2.026098  0.607774
H    -0.909545  1.031012  -1.647142
H    -2.134874  -0.142347  -1.078694
H    -0.400679  -0.493961  -0.901681
N    -1.771083  0.499765  1.528452
C    -2.717485  -0.593748  1.568346
C    -3.776564  -0.235478  2.641708
O    -3.581762  0.665729  3.457954
H    -1.780325  1.073577  2.375277
H    -3.246460  -0.663063  0.606983
C    -2.073636  -1.976905  1.896906
C    -1.898991  -2.902198  0.694529
C    -3.220441  -3.313580  0.049017
O    -4.321570  -3.123889  0.571671
N    -3.109460  -3.928629  -1.159766
H    -2.679395  -2.497788  2.650454
H    -1.094314  -1.785838  2.353993
H    -1.392936  -3.828477  1.013237
H    -1.247301  -2.452055  -0.068659
H    -3.949836  -4.265308  -1.614039
H    -2.213889  -4.109391  -1.592887
N    -4.887134  -1.007866  2.587903
C    -5.964427  -0.894904  3.551441
H    -4.891984  -1.774772  1.910265
H    -6.933656  -0.834107  3.039213
H    -5.807630  0.018379  4.134698
H    -5.983949  -1.753332  4.239657
