29
Energy: -19156.298844 eV PBE+vdW (tier 2 basis)
C    -0.231083  -1.684217  1.957028
C    -1.023741  -0.393300  2.008091
O    -0.608688  0.577373  2.636239
H    -0.449163  -2.263987  2.865511
H    0.829908  -1.417834  1.982111
H    -0.426786  -2.326374  1.093671
N    -2.264327  -0.317024  1.405830
C    -2.994847  -1.190231  0.484863
C    -2.847368  -2.694281  0.795860
O    -2.434130  -3.502454  -0.042078
H    -2.663749  0.610290  1.531793
H    -4.061815  -0.977652  0.680921
C    -2.766124  -0.870567  -1.002097
C    -1.305061  -0.926577  -1.503816
C    -1.180161  -1.614715  -2.864204
O    -0.898426  -1.008363  -3.893597
N    -1.405522  -2.960299  -2.822256
H    -3.171405  0.133986  -1.187578
H    -3.394575  -1.561773  -1.580782
H    -0.670392  -1.470320  -0.792985
H    -0.888588  0.079578  -1.610279
H    -1.419654  -3.470967  -3.696060
H    -1.728893  -3.403872  -1.963767
N    -3.245909  -3.116925  2.026033
C    -3.788477  -2.345736  3.133263
H    -3.112179  -4.114324  2.163042
H    -4.342819  -3.025849  3.789378
H    -4.490253  -1.581687  2.777182
H    -3.007548  -1.845321  3.723392
