29
Energy: -19156.5526841 eV PBE+vdW (tier 2 basis)
C    0.535114  -0.300466  1.671722
C    -0.308983  -0.918652  2.769655
O    0.021787  -0.853782  3.948646
H    0.378088  0.786750  1.681356
H    0.326155  -0.669082  0.662140
H    1.587699  -0.478626  1.916559
N    -1.468559  -1.588082  2.415078
C    -2.140834  -1.653850  1.118258
C    -1.410458  -2.539804  0.077188
O    -1.702091  -2.469442  -1.121764
H    -1.999939  -1.883323  3.229424
H    -3.062211  -2.226801  1.315181
C    -2.563741  -0.285227  0.521198
C    -4.063500  0.004026  0.622767
C    -5.046526  -0.860326  -0.176461
O    -6.248558  -0.815993  0.075887
N    -4.532493  -1.618853  -1.184824
H    -2.233351  -0.232958  -0.524649
H    -2.026419  0.507341  1.056151
H    -4.256038  1.038416  0.298415
H    -4.403842  -0.039812  1.667663
H    -5.190934  -2.196796  -1.694239
H    -3.532499  -1.788446  -1.321014
N    -0.512889  -3.415553  0.580723
C    0.211982  -4.370007  -0.236043
H    -0.346558  -3.374711  1.581120
H    0.000027  -5.399559  0.082410
H    1.295051  -4.196251  -0.176734
H    -0.114551  -4.242134  -1.273051
