29
Energy: -19156.4601433 eV PBE+vdW (tier 2 basis)
C    -1.225553  2.557991  0.769861
C    -0.737973  1.397236  1.618672
O    0.217822  1.498092  2.380651
H    -0.561919  3.406402  0.954338
H    -2.252678  2.849846  1.031005
H    -1.209567  2.316810  -0.301944
N    -1.426518  0.208145  1.515877
C    -2.495113  -0.136364  0.583446
C    -3.500735  -1.029346  1.346890
O    -3.526743  -2.255790  1.200059
H    -1.002552  -0.552959  2.042210
H    -3.002384  0.797818  0.303333
C    -1.989319  -0.833966  -0.683422
C    -3.098782  -1.062659  -1.735621
C    -3.042614  -2.442009  -2.397224
O    -2.819162  -2.589568  -3.595296
N    -3.272571  -3.479128  -1.542498
H    -1.535387  -1.789274  -0.387969
H    -1.182939  -0.223276  -1.110364
H    -3.037309  -0.322324  -2.540062
H    -4.091370  -0.956437  -1.268821
H    -3.389100  -3.320618  -0.542182
H    -3.191099  -4.421978  -1.901359
N    -4.336506  -0.409456  2.221685
C    -4.381605  1.001291  2.574101
H    -4.925559  -1.051819  2.742789
H    -5.225149  1.158962  3.253531
H    -4.548242  1.633472  1.690753
H    -3.462642  1.331596  3.078487
