29
Energy: -19156.5145387 eV PBE+vdW (tier 2 basis)
C    -0.271428  -1.201249  1.753771
C    -1.049549  -1.250264  3.053584
O    -0.521917  -1.574825  4.111343
H    0.766872  -0.953664  1.992899
H    -0.658167  -0.492743  1.014072
H    -0.283090  -2.201055  1.296737
N    -2.412433  -0.994036  3.017713
C    -3.198611  -0.331805  1.972977
C    -3.208880  -1.141583  0.648643
O    -3.213060  -0.597290  -0.458537
H    -2.809573  -0.984906  3.953941
H    -4.238828  -0.378930  2.336760
C    -2.858954  1.153268  1.750632
C    -4.022621  1.962425  1.126814
C    -3.554712  2.938235  0.046133
O    -3.527352  4.153775  0.216389
N    -3.170888  2.331391  -1.113556
H    -1.964545  1.232807  1.119009
H    -2.591210  1.582880  2.724218
H    -4.536778  2.553271  1.892355
H    -4.758227  1.279238  0.678186
H    -2.775268  2.904451  -1.848083
H    -3.137126  1.314989  -1.176443
N    -3.262535  -2.485064  0.817718
C    -3.285058  -3.424663  -0.286622
H    -3.158923  -2.829228  1.767012
H    -4.094547  -4.154221  -0.156087
H    -2.331316  -3.965320  -0.374329
H    -3.454521  -2.859094  -1.208301
