29
Energy: -19156.2250491 eV PBE+vdW (tier 2 basis)
C    -0.859471  0.798507  -0.461245
C    -0.320867  0.922967  0.948519
O    0.684823  1.592109  1.187445
H    -0.001566  0.823155  -1.141126
H    -1.478138  1.678906  -0.691695
H    -1.434424  -0.116729  -0.627554
N    -0.961672  0.287654  1.991604
C    -2.281545  -0.321510  2.116714
C    -2.368463  -1.730729  1.490512
O    -1.738735  -2.066124  0.492375
H    -0.516350  0.516621  2.876184
H    -2.414723  -0.437503  3.201879
C    -3.446258  0.570920  1.615003
C    -3.790295  1.735467  2.567424
C    -2.568980  2.494528  3.083820
O    -2.083005  2.255500  4.187045
N    -2.054810  3.446635  2.249058
H    -4.347600  -0.045935  1.484643
H    -3.200043  0.944041  0.613199
H    -4.297392  1.347152  3.459602
H    -4.486822  2.420316  2.061115
H    -2.355588  3.503632  1.284203
H    -1.119042  3.782115  2.454284
N    -3.235164  -2.596507  2.103456
C    -3.976516  -2.415947  3.342087
H    -3.275653  -3.504170  1.650867
H    -4.538695  -3.334024  3.542265
H    -4.703007  -1.592470  3.280562
H    -3.316207  -2.235450  4.203417
