29
Energy: -19156.4740817 eV PBE+vdW (tier 2 basis)
C    -1.200764  1.211521  1.319520
C    -0.258116  0.468149  2.247516
O    0.799700  0.957782  2.640065
H    -1.437811  0.627576  0.419240
H    -0.720191  2.148804  1.028407
H    -2.156544  1.435515  1.814229
N    -0.633079  -0.794124  2.639103
C    -1.898790  -1.452942  2.365660
C    -3.144004  -0.848674  3.059628
O    -4.202602  -0.777081  2.433879
H    0.012820  -1.254543  3.281521
H    -2.138201  -1.342952  1.296876
C    -1.839183  -2.961091  2.674844
C    -0.713105  -3.712133  1.962186
C    0.627023  -3.639578  2.698289
O    0.748356  -3.154549  3.823301
N    1.683540  -4.182244  2.033993
H    -2.808247  -3.381140  2.376426
H    -1.736651  -3.123712  3.757011
H    -0.584311  -3.347764  0.930565
H    -0.977990  -4.778143  1.878928
H    1.605862  -4.529183  1.087469
H    2.599861  -4.134291  2.462867
N    -3.055877  -0.422349  4.352702
C    -1.941385  -0.460733  5.292904
H    -3.932300  -0.032239  4.685306
H    -2.349816  -0.349562  6.303901
H    -1.215667  0.346539  5.121138
H    -1.408713  -1.418467  5.258711
