29
Energy: -19155.3654811 eV PBE+vdW (tier 2 basis)
C    -1.935248  2.364421  1.725627
C    -1.763087  1.011166  2.398285
O    -2.622854  0.130210  2.349925
H    -2.985184  2.665862  1.815025
H    -1.709727  2.264235  0.654038
H    -1.284978  3.141674  2.148117
N    -0.547555  0.830717  3.013047
C    -0.264674  -0.311898  3.884903
C    -0.604817  -1.686122  3.249713
O    -1.198211  -2.549135  3.895819
H    0.005903  1.666338  3.203072
H    0.831364  -0.307799  4.029793
C    -0.937658  -0.196696  5.265198
C    -0.409546  0.966636  6.129788
C    -0.690138  2.353662  5.560716
O    0.135060  2.985219  4.889722
N    -1.930562  2.860353  5.828306
H    -0.771420  -1.141509  5.798709
H    -2.025115  -0.121657  5.115128
H    0.681264  0.892138  6.245303
H    -0.852475  0.886201  7.134612
H    -2.648380  2.304765  6.279699
H    -2.201702  3.726706  5.373427
N    -0.112592  -1.962597  2.000661
C    0.559854  -1.102339  1.038429
H    -0.442301  -2.865276  1.665286
H    1.102410  -1.741438  0.330001
H    1.294072  -0.454707  1.531844
H    -0.141704  -0.468130  0.472807
