29
Energy: -19156.4461436 eV PBE+vdW (tier 2 basis)
C    0.609887  0.684796  0.519243
C    0.399410  0.268026  1.960144
O    1.352797  -0.080979  2.663889
H    0.903830  -0.207666  -0.049173
H    1.443260  1.394669  0.472545
H    -0.274245  1.129236  0.045969
N    -0.894157  0.299983  2.392195
C    -1.487805  -0.161169  3.660977
C    -0.962637  0.440187  4.993766
O    -1.778123  0.615158  5.902725
H    -1.564579  0.665297  1.727148
H    -2.510202  0.236378  3.631938
C    -1.647943  -1.696308  3.790506
C    -0.388884  -2.568673  3.891467
C    0.352943  -3.032986  2.638219
O    1.449927  -3.568543  2.721706
N    -0.273799  -2.866301  1.428834
H    -2.308678  -2.045153  2.979349
H    -2.235496  -1.836082  4.709705
H    -0.658703  -3.505013  4.404991
H    0.370020  -2.099620  4.530325
H    0.154274  -3.304801  0.622564
H    -1.227177  -2.540671  1.353078
N    0.355881  0.699574  5.096502
C    0.927831  1.214531  6.326805
H    0.958594  0.419862  4.309484
H    1.952318  1.545493  6.126943
H    0.947256  0.450617  7.118743
H    0.337009  2.061871  6.696542
