29
Energy: -19156.2148355 eV PBE+vdW (tier 2 basis)
C    -0.094597  -0.018105  -0.129205
C    -0.108535  0.319367  1.351080
O    0.706438  1.100867  1.841542
H    0.922509  -0.313084  -0.412519
H    -0.342829  0.889229  -0.695035
H    -0.793093  -0.814531  -0.412900
N    -1.074134  -0.320799  2.079416
C    -1.396456  -0.072650  3.490757
C    -2.295136  1.195627  3.598298
O    -3.484710  1.055584  3.306452
H    -1.788041  -0.813876  1.556184
H    -2.122967  -0.857551  3.742594
C    -0.193952  -0.266662  4.427318
C    -0.587534  -0.275569  5.910656
C    -1.550053  -1.369807  6.374668
O    -2.466672  -1.143170  7.154182
N    -1.318642  -2.626573  5.876454
H    0.577022  0.488337  4.252564
H    0.277141  -1.221247  4.141711
H    -1.061497  0.669425  6.203960
H    0.325274  -0.367613  6.520819
H    -0.502124  -2.848292  5.322654
H    -1.880175  -3.387942  6.237798
N    -1.816021  2.411468  3.982324
C    -0.462294  2.892670  4.229399
H    -2.562126  3.100616  4.011538
H    -0.464831  3.981072  4.102081
H    0.240533  2.468891  3.503757
H    -0.121652  2.677147  5.254017
