29
Energy: -19156.698877 eV PBE+vdW (tier 2 basis)
C    1.601138  -0.793704  1.872686
C    0.663723  -0.198722  2.897148
O    0.920614  -0.189605  4.106843
H    2.125265  -1.648877  2.310230
H    2.344287  -0.027107  1.610372
H    1.090389  -1.105071  0.952530
N    -0.476338  0.363891  2.402492
C    -1.311014  1.252259  3.209507
C    -2.395827  0.455808  3.986603
O    -3.594752  0.539576  3.720869
H    -0.636565  0.332288  1.402748
H    -0.633530  1.695697  3.957289
C    -1.945214  2.354844  2.362709
C    -0.947381  3.156387  1.503263
C    0.309406  3.602931  2.247366
O    1.418692  3.139299  2.003163
N    0.115353  4.545240  3.220102
H    -2.486462  3.019321  3.050916
H    -2.724030  1.921469  1.718790
H    -1.464752  4.032505  1.083649
H    -0.589164  2.564523  0.652687
H    0.910522  4.836719  3.775261
H    -0.796916  4.920955  3.440970
N    -1.867838  -0.316188  4.970022
C    -2.668343  -1.219943  5.770789
H    -0.844401  -0.350009  5.021249
H    -2.463441  -1.075622  6.840114
H    -2.468336  -2.271295  5.514886
H    -3.724303  -1.005312  5.574829
