29
Energy: -19156.5970368 eV PBE+vdW (tier 2 basis)
C    -0.518293  0.822545  0.339408
C    -0.468314  0.345926  1.780518
O    0.423040  0.679779  2.553984
H    0.248173  0.282985  -0.233480
H    -0.262458  1.887332  0.308884
H    -1.489890  0.666001  -0.145535
N    -1.508240  -0.473727  2.161800
C    -1.504862  -1.241935  3.410382
C    -1.618640  -0.364142  4.676542
O    -1.272335  -0.794258  5.776447
H    -2.109835  -0.829544  1.426990
H    -2.438166  -1.824165  3.377025
C    -0.332161  -2.243099  3.494084
C    -0.624189  -3.465521  4.361445
C    -1.742075  -4.344794  3.807816
O    -2.212158  -4.216024  2.677979
N    -2.183808  -5.316079  4.661600
H    0.560276  -1.729981  3.870334
H    -0.119199  -2.578504  2.470295
H    -0.862654  -3.151273  5.387685
H    0.281912  -4.089545  4.427772
H    -1.844143  -5.391011  5.610873
H    -2.924177  -5.934169  4.353853
N    -2.210438  0.846156  4.495812
C    -2.348609  1.809204  5.569294
H    -2.347896  1.147628  3.538058
H    -3.339501  2.280695  5.538679
H    -1.577529  2.592529  5.513514
H    -2.231800  1.274443  6.517741
