29
Energy: -19155.7717216 eV PBE+vdW (tier 2 basis)
C    -1.823991  -1.962227  -0.910841
C    -1.135603  -1.750452  0.422197
O    -0.091899  -2.355083  0.723704
H    -1.964978  -3.038832  -1.069176
H    -1.162444  -1.597136  -1.708284
H    -2.790614  -1.449161  -0.984595
N    -1.730853  -0.844330  1.249299
C    -1.211224  -0.561410  2.589399
C    -1.711144  -1.605249  3.633871
O    -2.439536  -1.300070  4.584862
H    -2.720831  -0.604729  1.092613
H    -0.119769  -0.691423  2.518975
C    -1.509404  0.879425  3.047598
C    -2.843171  1.516055  2.583937
C    -4.075447  0.629710  2.728808
O    -4.429026  -0.133671  1.818975
N    -4.792167  0.754462  3.884540
H    -0.703589  1.535267  2.688322
H    -1.468172  0.876163  4.145540
H    -2.780585  1.771739  1.517086
H    -2.986459  2.458478  3.133037
H    -4.305349  1.099186  4.707045
H    -5.452723  -0.000039  4.059644
N    -1.240409  -2.857134  3.393040
C    -1.618347  -4.009025  4.193840
H    -0.651150  -2.977618  2.561224
H    -2.204720  -4.729382  3.603546
H    -2.229158  -3.652104  5.030753
H    -0.727239  -4.517409  4.589044
