29
Energy: -19156.800905 eV PBE+vdW (tier 2 basis)
C    0.239219  -0.742117  -0.230052
C    -0.231837  -0.763049  1.213514
O    0.051038  -1.686079  1.978548
H    1.333441  -0.818715  -0.247211
H    -0.066474  0.156280  -0.779594
H    -0.157749  -1.628662  -0.740483
N    -0.966437  0.323222  1.599260
C    -1.656793  0.389458  2.877454
C    -2.708620  1.515064  2.719683
O    -3.090357  1.843063  1.589508
H    -1.399644  0.918415  0.891528
H    -2.227962  -0.546563  3.025030
C    -0.696028  0.508263  4.071778
C    0.119018  1.809652  4.136257
C    -0.182895  2.640007  5.379875
O    -1.262601  2.591881  5.974720
N    0.812983  3.472261  5.786920
H    -0.025513  -0.356706  4.014657
H    -1.270217  0.390569  5.001335
H    -0.106028  2.451767  3.267593
H    1.196980  1.606223  4.077457
H    1.710633  3.502881  5.323443
H    0.649846  4.076252  6.583302
N    -3.187280  2.050409  3.864536
C    -4.176033  3.113669  3.860148
H    -2.655984  1.920551  4.730153
H    -5.088772  2.802778  4.387345
H    -4.426409  3.351886  2.821465
H    -3.775553  4.009296  4.354251
