29
Energy: -19156.7370735 eV PBE+vdW (tier 2 basis)
C    0.420496  -1.059065  0.372790
C    0.107960  -0.117311  1.519600
O    1.001334  0.315433  2.260218
H    -0.463486  -1.376974  -0.192191
H    0.928108  -1.944210  0.775603
H    1.123186  -0.562170  -0.308041
N    -1.202253  0.210087  1.654298
C    -1.778545  1.103204  2.642507
C    -3.259193  1.266739  2.217441
O    -3.699320  0.712869  1.207992
H    -1.894229  -0.115764  0.976662
H    -1.772634  0.608752  3.631168
C    -1.022985  2.443271  2.798962
C    -0.776901  3.196934  1.480716
C    0.524988  3.999448  1.488580
O    0.547907  5.221670  1.370041
N    1.655087  3.242897  1.617183
H    -0.070672  2.209237  3.285614
H    -1.572073  3.087849  3.501114
H    -1.588440  3.897826  1.257916
H    -0.727990  2.477302  0.649119
H    1.620661  2.243178  1.818662
H    2.538037  3.730936  1.702721
N    -4.016769  2.034181  3.038901
C    -5.421747  2.307728  2.794336
H    -3.569077  2.472930  3.834660
H    -6.033306  2.010391  3.656577
H    -5.727615  1.725029  1.919952
H    -5.589130  3.373924  2.587879
