29
Energy: -19156.3017919 eV PBE+vdW (tier 2 basis)
C    -1.180036  -0.728062  0.440854
C    -0.712252  -0.197711  1.786630
O    0.488426  -0.077993  2.042275
H    -0.688896  -1.690518  0.253484
H    -0.846328  -0.034692  -0.341694
H    -2.266083  -0.857899  0.359752
N    -1.716130  0.110837  2.657933
C    -1.654379  0.667619  4.019017
C    -1.930067  2.197366  4.025773
O    -3.034689  2.588430  4.407509
H    -2.659656  -0.004473  2.306893
H    -2.557377  0.287493  4.512678
C    -0.472491  0.221631  4.895059
C    -0.285486  -1.295074  4.974621
C    -1.497289  -2.047073  5.516400
O    -2.315217  -1.544249  6.279800
N    -1.603709  -3.345994  5.094730
H    -0.689442  0.610686  5.900137
H    0.473357  0.659906  4.564435
H    0.548766  -1.506520  5.663294
H    0.020368  -1.694941  3.997925
H    -0.891049  -3.783524  4.526401
H    -2.320443  -3.927987  5.511432
N    -0.990883  3.091326  3.601824
C    0.381276  2.917814  3.152507
H    -1.328823  4.045853  3.691390
H    1.103557  3.152178  3.950880
H    0.572669  3.594295  2.308958
H    0.560123  1.895852  2.802939
