29
Energy: -19156.3492303 eV PBE+vdW (tier 2 basis)
C    0.032716  -0.165607  0.107400
C    -0.267773  -0.790599  1.447471
O    0.590246  -1.355823  2.123715
H    0.953120  -0.613719  -0.276892
H    0.199503  0.910394  0.261572
H    -0.772855  -0.275611  -0.627670
N    -1.549657  -0.688717  1.954791
C    -2.781871  -0.154624  1.371751
C    -3.133861  -0.784290  -0.000523
O    -3.352481  -0.092588  -0.992280
H    -1.616843  -1.116888  2.872522
H    -3.575913  -0.484157  2.064188
C    -2.844877  1.378201  1.298931
C    -2.518290  2.056870  2.632904
C    -1.014903  2.167145  2.888100
O    -0.234804  2.538573  2.017042
N    -0.601082  1.888839  4.160345
H    -3.853810  1.657133  0.969098
H    -2.159923  1.752767  0.528418
H    -3.033222  1.563657  3.473040
H    -2.891574  3.091855  2.604057
H    -1.213100  1.447379  4.832612
H    0.396794  1.871693  4.337498
N    -3.207133  -2.148043  -0.061278
C    -3.041437  -3.134410  0.993900
H    -3.415491  -2.485654  -0.995579
H    -3.559689  -2.828951  1.913253
H    -1.986220  -3.325371  1.235601
H    -3.498664  -4.073504  0.662205
