29
Energy: -19156.5330552 eV PBE+vdW (tier 2 basis)
C    1.249415  1.168179  0.382140
C    0.673337  0.578887  1.652458
O    1.322747  0.525295  2.700952
H    2.265090  0.782784  0.238224
H    1.322022  2.256509  0.510159
H    0.652672  0.957652  -0.513500
N    -0.602525  0.109217  1.554661
C    -1.408601  -0.308861  2.701697
C    -1.263840  0.745725  3.835549
O    -1.452342  1.932333  3.587736
H    -1.086480  0.250674  0.677373
H    -2.452871  -0.166090  2.383542
C    -1.272168  -1.804416  3.052387
C    0.142049  -2.342936  3.321156
C    0.858753  -2.766200  2.035311
O    0.329208  -3.506566  1.212041
N    2.147395  -2.323010  1.920265
H    -1.687928  -2.391781  2.219960
H    -1.929067  -2.005076  3.912213
H    0.061478  -3.264535  3.917342
H    0.755656  -1.631840  3.888497
H    2.422317  -1.480916  2.418176
H    2.622190  -2.529924  1.048185
N    -1.037210  0.272039  5.091105
C    -0.838968  1.174824  6.210778
H    -0.719735  -0.683740  5.189813
H    -1.110367  0.669390  7.144855
H    -1.481135  2.050276  6.070165
H    0.203265  1.523522  6.276075
