29
Energy: -19156.9588949 eV PBE+vdW (tier 2 basis)
C    -0.673754  2.570164  0.128935
C    -1.202776  1.474738  1.030322
O    -1.899087  0.545930  0.581929
H    -0.063487  2.111322  -0.659335
H    -0.073428  3.315896  0.662790
H    -1.519731  3.067364  -0.362157
N    -0.873134  1.585494  2.337431
C    -1.158114  0.553469  3.331473
C    -2.629583  0.592924  3.842437
O    -2.922279  0.765330  5.030322
H    -0.263120  2.354612  2.657229
H    -1.041364  -0.419678  2.824530
C    -0.145877  0.605192  4.482902
C    -0.144896  1.857576  5.383579
C    0.656652  3.046523  4.885811
O    0.787551  3.347628  3.692430
N    1.229117  3.809946  5.856167
H    0.858387  0.440276  4.065690
H    -0.365693  -0.253328  5.130152
H    0.220237  1.573825  6.381025
H    -1.185035  2.186346  5.535621
H    1.107826  3.608551  6.838991
H    1.698050  4.665900  5.585220
N    -3.540213  0.388314  2.866010
C    -4.965693  0.420276  3.128217
H    -3.179913  0.284543  1.907245
H    -5.495498  0.070681  2.235955
H    -5.313441  1.435429  3.373376
H    -5.217158  -0.231138  3.975462
