29
Energy: -19156.6263432 eV PBE+vdW (tier 2 basis)
C    0.379140  -0.343114  0.177323
C    0.144346  -0.615017  1.649990
O    0.896474  -1.330102  2.312050
H    1.432789  -0.080431  0.029362
H    -0.253357  0.454499  -0.231094
H    0.187481  -1.267557  -0.383245
N    -0.958378  -0.003198  2.181598
C    -1.396750  -0.199662  3.559530
C    -2.891260  -0.591880  3.535762
O    -3.239000  -1.760210  3.402668
H    -1.486162  0.633732  1.595914
H    -0.867075  -1.098481  3.902511
C    -1.036396  0.977604  4.482292
C    0.470179  1.253518  4.535573
C    0.951064  2.079395  3.342298
O    0.334958  3.063013  2.938079
N    2.146830  1.688095  2.809419
H    -1.409177  0.746936  5.490691
H    -1.519966  1.913760  4.156494
H    1.036414  0.317203  4.630473
H    0.695303  1.860959  5.425425
H    2.485247  0.744680  2.960816
H    2.467676  2.177977  1.981848
N    -3.772197  0.450851  3.613692
C    -5.210633  0.262079  3.581645
H    -3.407075  1.378438  3.794143
H    -5.671225  0.889129  2.806465
H    -5.670246  0.501239  4.551442
H    -5.399482  -0.791894  3.352541
