29
Energy: -19156.5629598 eV PBE+vdW (tier 2 basis)
C    0.204104  -0.334733  0.066805
C    -0.221055  0.358134  1.348430
O    0.573670  0.955421  2.068617
H    1.181265  -0.803537  0.222988
H    0.318288  0.427317  -0.716701
H    -0.512595  -1.088466  -0.282427
N    -1.560830  0.263016  1.643353
C    -2.186284  1.101232  2.669471
C    -2.083510  2.593063  2.234272
O    -2.474351  2.904703  1.106225
H    -2.166863  -0.022620  0.883078
H    -3.262736  0.877622  2.601040
C    -1.710905  0.724943  4.082558
C    -2.646660  1.217495  5.207524
C    -1.917133  2.042695  6.259754
O    -1.068701  2.884192  5.958760
N    -2.278006  1.823373  7.553196
H    -0.692817  1.101063  4.237853
H    -1.640049  -0.369759  4.121832
H    -3.184446  0.378701  5.670221
H    -3.421328  1.887812  4.798683
H    -2.951445  1.115939  7.811905
H    -1.842233  2.377362  8.280875
N    -1.605680  3.480227  3.132196
C    -1.473234  4.885524  2.796628
H    -1.232016  3.174124  4.035248
H    -1.345910  5.457034  3.722360
H    -2.369663  5.232202  2.268290
H    -0.606618  5.066063  2.142617
