29
Energy: -19156.4888121 eV PBE+vdW (tier 2 basis)
C    -0.023222  0.373683  0.239658
C    -0.003159  0.099772  1.734557
O    1.045188  0.003457  2.366020
H    1.012798  0.410235  -0.106395
H    -0.503852  1.336854  0.015072
H    -0.559116  -0.406461  -0.318358
N    -1.216818  -0.015666  2.367023
C    -2.544454  -0.032883  1.775350
C    -3.504037  0.578157  2.811182
O    -3.581395  0.112233  3.946764
H    -1.170065  -0.229272  3.361796
H    -2.531852  0.587117  0.866496
C    -3.003566  -1.458550  1.407735
C    -4.413460  -1.507845  0.800310
C    -4.737464  -2.916469  0.313829
O    -4.349161  -3.340418  -0.768697
N    -5.468951  -3.679631  1.182399
H    -2.960867  -2.071500  2.319838
H    -2.282429  -1.882579  0.695059
H    -4.471162  -0.851296  -0.079336
H    -5.157428  -1.158120  1.531427
H    -5.716990  -3.353469  2.106722
H    -5.626392  -4.653362  0.951707
N    -4.247663  1.630059  2.371611
C    -5.204094  2.325729  3.213838
H    -4.094044  1.961982  1.427385
H    -6.207785  2.308735  2.768050
H    -4.903835  3.369740  3.378041
H    -5.229752  1.808883  4.178726
