29
Energy: -19155.6050745 eV PBE+vdW (tier 2 basis)
C    -0.807319  2.974775  1.096814
C    -1.005475  1.484804  1.298516
O    -0.503847  0.634353  0.567742
H    -0.517624  3.161370  0.057887
H    0.006248  3.310786  1.757541
H    -1.706355  3.556129  1.343345
N    -1.797230  1.152887  2.388487
C    -1.756674  -0.203286  2.939582
C    -3.138682  -0.675275  3.435854
O    -3.250732  -1.559198  4.288910
H    -2.000332  1.904570  3.048264
H    -1.503412  -0.843936  2.077159
C    -0.652255  -0.416007  3.994781
C    -0.830966  0.352028  5.319240
C    -0.725479  1.861683  5.147730
O    0.306160  2.432861  4.808075
N    -1.914955  2.560388  5.311999
H    0.308992  -0.141660  3.537394
H    -0.619338  -1.488620  4.227368
H    -0.015477  0.063702  5.998100
H    -1.778673  0.057498  5.792796
H    -2.670425  2.133234  5.840643
H    -1.824313  3.571630  5.388689
N    -4.201889  -0.062522  2.837005
C    -5.575110  -0.472230  3.074103
H    -3.985542  0.619485  2.113592
H    -6.002278  -0.978557  2.195263
H    -6.203872  0.393292  3.326964
H    -5.568146  -1.174184  3.916154
