29
Energy: -19156.4130494 eV PBE+vdW (tier 2 basis)
C    -0.146697  0.424607  0.055829
C    -0.112976  0.146210  1.543572
O    0.949146  -0.025351  2.148354
H    0.474762  1.303869  -0.152766
H    -1.155243  0.597059  -0.339077
H    0.303518  -0.426250  -0.470734
N    -1.324343  0.110975  2.172737
C    -1.448182  -0.301086  3.576031
C    -2.883567  -0.753807  3.885909
O    -3.087848  -1.849379  4.397767
H    -2.156408  0.089158  1.594509
H    -0.847985  -1.211393  3.711658
C    -0.935937  0.774589  4.569460
C    -0.544950  0.206308  5.936769
C    0.771669  -0.568586  6.083082
O    1.076032  -1.042676  7.175323
N    1.576516  -0.667169  4.989732
H    -1.703955  1.546799  4.712452
H    -0.080246  1.285812  4.108459
H    -1.329023  -0.458046  6.329256
H    -0.470148  1.028135  6.663335
H    1.319700  -0.378247  4.043185
H    2.427756  -1.204075  5.107507
N    -3.935124  0.068495  3.547060
C    -3.956209  1.500139  3.274836
H    -4.820977  -0.345515  3.828172
H    -4.778555  1.726162  2.583921
H    -3.023631  1.824216  2.803726
H    -4.100350  2.094809  4.190945
