29
Energy: -19156.5443962 eV PBE+vdW (tier 2 basis)
C    -0.446850  -1.972379  0.704671
C    0.058457  -1.073545  1.816854
O    1.064113  -1.333494  2.469227
H    -0.342664  -1.476343  -0.270770
H    -1.505039  -2.238754  0.835325
H    0.156617  -2.883498  0.704533
N    -0.684765  0.053577  2.094907
C    -1.764807  0.609222  1.306752
C    -1.263169  1.191868  -0.042407
O    -0.092658  1.524690  -0.214309
H    -0.217742  0.671417  2.753183
H    -2.485428  -0.194954  1.089023
C    -2.511253  1.694061  2.119358
C    -1.797982  3.052498  2.199841
C    -2.095768  3.939571  0.986532
O    -3.243437  4.126789  0.589315
N    -1.011662  4.551628  0.425907
H    -2.674191  1.289186  3.127662
H    -3.505354  1.868883  1.684392
H    -0.715088  2.941776  2.354006
H    -2.184654  3.604938  3.068755
H    -0.091456  4.143472  0.543988
H    -1.175010  5.076415  -0.426601
N    -2.236344  1.325901  -0.985429
C    -2.039215  2.079047  -2.210796
H    -3.192144  1.138813  -0.702580
H    -2.469783  1.543966  -3.066443
H    -0.961405  2.193099  -2.363560
H    -2.502542  3.074710  -2.138376
