29
Energy: -19155.7258049 eV PBE+vdW (tier 2 basis)
C    -1.753538  2.644974  -0.509952
C    -1.845809  1.572316  0.555079
O    -2.474380  0.517881  0.368755
H    -1.204610  3.539608  -0.190862
H    -2.768658  2.930823  -0.813141
H    -1.256303  2.217205  -1.390488
N    -1.197496  1.833698  1.725246
C    -1.060048  0.869929  2.824950
C    -2.338763  0.783906  3.714473
O    -2.328908  1.015616  4.933456
H    -0.751651  2.739088  1.843204
H    -0.943638  -0.120770  2.353963
C    0.188169  1.185475  3.652057
C    0.248112  2.633485  4.210887
C    0.744688  2.682850  5.661123
O    1.851456  3.125212  5.968231
N    -0.160006  2.198581  6.561435
H    1.076247  0.990372  3.034367
H    0.217502  0.464568  4.480061
H    -0.750297  3.097593  4.186468
H    0.937091  3.258439  3.629019
H    -1.016587  1.745918  6.230766
H    0.134285  2.104758  7.527806
N    -3.447662  0.398785  3.046722
C    -4.736615  0.266249  3.710244
H    -3.351013  0.221586  2.037836
H    -4.711057  -0.529410  4.469061
H    -5.492247  0.020062  2.956910
H    -5.016264  1.203205  4.212325
