29
Energy: -19155.831638 eV PBE+vdW (tier 2 basis)
C    0.238818  0.043031  0.145210
C    0.159524  0.235578  1.647122
O    1.178693  0.469078  2.316347
H    -0.737479  -0.104930  -0.332019
H    0.876269  -0.827000  -0.060639
H    0.729690  0.919819  -0.295897
N    -1.087857  0.147657  2.183325
C    -1.380302  0.136657  3.610453
C    -2.540204  -0.854612  3.806159
O    -3.293429  -1.136290  2.866123
H    -1.872298  -0.182736  1.615501
H    -0.481106  -0.216145  4.138821
C    -1.797481  1.532907  4.142338
C    -0.609570  2.485639  4.338592
C    0.305475  1.962117  5.447592
O    -0.058867  1.943381  6.628229
N    1.523657  1.513179  5.027675
H    -2.320026  1.423146  5.103952
H    -2.520729  1.959501  3.431543
H    -0.986594  3.463490  4.670200
H    -0.061238  2.631747  3.398215
H    1.631049  1.235600  4.045337
H    2.094105  1.042779  5.725819
N    -2.725795  -1.352993  5.059485
C    -1.823865  -1.260993  6.207427
H    -3.509042  -2.000516  5.117998
H    -2.360594  -1.629308  7.088725
H    -1.521083  -0.226788  6.415247
H    -0.920723  -1.876994  6.073119
