29
Energy: -19156.50766 eV PBE+vdW (tier 2 basis)
C    -0.954238  -1.137503  1.257513
C    0.230743  -0.231801  1.556896
O    1.377867  -0.669519  1.605171
H    -1.462591  -0.840791  0.328761
H    -1.699904  -1.130476  2.063286
H    -0.570426  -2.153752  1.136876
N    -0.022251  1.098412  1.775328
C    -1.276775  1.821386  1.688496
C    -1.037513  3.079444  0.828030
O    0.043812  3.662189  0.849113
H    0.806240  1.690193  1.836188
H    -2.024897  1.176544  1.205285
C    -1.807607  2.268836  3.069281
C    -2.107759  1.105460  4.016533
C    -2.747342  1.608445  5.308741
O    -3.736806  2.333066  5.307023
N    -2.149455  1.188468  6.462669
H    -2.724202  2.861616  2.937806
H    -1.060414  2.937649  3.523234
H    -1.197295  0.522056  4.212390
H    -2.841018  0.424898  3.554884
H    -1.315410  0.617773  6.463069
H    -2.534275  1.497014  7.347543
N    -2.111119  3.496477  0.102304
C    -2.106122  4.719560  -0.680554
H    -2.966385  2.956355  0.156171
H    -2.361128  4.515751  -1.729031
H    -1.094753  5.136096  -0.633506
H    -2.814563  5.456020  -0.276011
