29
Energy: -19156.3448309 eV PBE+vdW (tier 2 basis)
C    -0.548112  0.235551  -0.266856
C    -0.045290  0.026776  1.147885
O    1.149297  0.076251  1.425482
H    0.316179  0.200178  -0.935121
H    -1.027417  1.219907  -0.365925
H    -1.275745  -0.526981  -0.573396
N    -0.972276  -0.180367  2.149496
C    -2.409737  -0.429689  2.060456
C    -2.694638  -1.763904  1.311386
O    -2.098998  -2.786308  1.633438
H    -0.523658  -0.425108  3.026225
H    -2.710379  -0.660898  3.094210
C    -3.227641  0.793455  1.606518
C    -2.898134  2.067274  2.381092
C    -3.428450  3.311549  1.671374
O    -3.592713  3.362120  0.456514
N    -3.691641  4.377461  2.484973
H    -4.297442  0.564711  1.729919
H    -3.072335  1.014106  0.541180
H    -1.803549  2.177775  2.450743
H    -3.271887  2.017481  3.415141
H    -3.479560  4.362801  3.473505
H    -3.937337  5.260661  2.053907
N    -3.637976  -1.721019  0.327343
C    -4.013688  -2.892750  -0.442250
H    -4.046829  -0.827409  0.083789
H    -5.097328  -3.064773  -0.392311
H    -3.490830  -3.752605  -0.010918
H    -3.718522  -2.790252  -1.496272
