29
Energy: -19156.4565576 eV PBE+vdW (tier 2 basis)
C    0.162897  -1.132814  1.434740
C    0.214701  0.160607  2.233111
O    1.207705  0.480165  2.883022
H    -0.002976  -0.940291  0.364828
H    -0.640001  -1.798339  1.780154
H    1.122426  -1.641491  1.557632
N    -0.891587  0.967452  2.193198
C    -2.140124  0.759744  1.487393
C    -2.729483  2.156574  1.209537
O    -2.384872  3.131058  1.880143
H    -0.809315  1.874392  2.653649
H    -1.939809  0.255266  0.530041
C    -3.159700  -0.100964  2.274640
C    -3.555724  0.484585  3.629120
C    -4.772462  -0.232397  4.208892
O    -5.682201  -0.665738  3.508053
N    -4.791258  -0.335292  5.570563
H    -2.724981  -1.100689  2.418894
H    -4.071633  -0.250044  1.681266
H    -3.839018  1.544733  3.520446
H    -2.709156  0.463949  4.329474
H    -4.054062  0.043099  6.149476
H    -5.609025  -0.734546  6.015140
N    -3.668728  2.268271  0.229860
C    -4.224516  1.240965  -0.635306
H    -4.063536  3.202169  0.167677
H    -5.075873  0.716897  -0.175197
H    -3.463034  0.498786  -0.902068
H    -4.566406  1.708928  -1.565625
