29
Energy: -19156.3194124 eV PBE+vdW (tier 2 basis)
C    0.185322  0.990959  1.345195
C    -0.001468  -0.392094  1.948480
O    0.954468  -1.064912  2.325672
H    1.260346  1.179662  1.287212
H    -0.275106  1.773223  1.963484
H    -0.246836  1.066273  0.338949
N    -1.283069  -0.875269  2.065221
C    -2.550620  -0.272989  1.655024
C    -3.530890  -0.409198  2.846291
O    -4.337654  -1.332236  2.909879
H    -1.326965  -1.821739  2.438490
H    -2.359252  0.791483  1.462604
C    -3.153131  -0.928289  0.405447
C    -2.262590  -0.820659  -0.829048
C    -2.780452  -1.675441  -1.986948
O    -3.392710  -2.722175  -1.820599
N    -2.494386  -1.190344  -3.235638
H    -4.131509  -0.465798  0.208241
H    -3.363316  -1.985012  0.613451
H    -1.251341  -1.195226  -0.597141
H    -2.147193  0.226297  -1.152136
H    -1.922149  -0.369048  -3.376689
H    -2.719549  -1.769243  -4.035793
N    -3.439012  0.525090  3.840957
C    -2.454944  1.581413  4.001774
H    -4.048815  0.322891  4.627347
H    -1.441917  1.190600  4.180896
H    -2.742513  2.192829  4.863586
H    -2.428094  2.246592  3.127456
