29
Energy: -19156.3751943 eV PBE+vdW (tier 2 basis)
C    -0.900607  0.999220  -0.980963
C    -0.272714  0.318004  0.225894
O    0.926624  0.051663  0.253244
H    -0.157320  0.990913  -1.782679
H    -1.154176  2.045049  -0.760631
H    -1.817118  0.505550  -1.328459
N    -1.081370  0.015135  1.293452
C    -2.530015  0.154792  1.429191
C    -2.829568  0.838324  2.789790
O    -3.240812  0.200361  3.754387
H    -0.605673  -0.519692  2.018841
H    -2.867943  0.817946  0.621018
C    -3.282906  -1.182582  1.346472
C    -2.937896  -2.026174  0.117113
C    -1.585948  -2.731363  0.254585
O    -1.226909  -3.249630  1.305990
N    -0.832839  -2.796480  -0.885398
H    -4.360213  -0.965975  1.365438
H    -3.070160  -1.767878  2.250122
H    -2.993040  -1.441909  -0.814597
H    -3.687579  -2.826561  0.021056
H    -1.039854  -2.209313  -1.682347
H    0.117110  -3.139093  -0.792626
N    -2.598193  2.183383  2.878411
C    -2.018366  3.075820  1.890710
H    -2.740460  2.544048  3.816783
H    -2.127903  4.105198  2.248300
H    -2.545985  3.009085  0.929336
H    -0.948928  2.880724  1.720597
