29
Energy: -19155.6864571 eV PBE+vdW (tier 2 basis)
C    -0.056471  2.424544  2.038342
C    -0.626367  1.020163  1.992383
O    -0.134166  0.114674  1.316052
H    -0.823063  3.191503  2.213564
H    0.465240  2.630051  1.097901
H    0.672939  2.468076  2.861282
N    -1.718961  0.815816  2.797279
C    -2.236199  -0.514342  3.062614
C    -3.629092  -0.353369  3.685923
O    -3.927591  0.637272  4.369838
H    -2.094645  1.565819  3.372900
H    -2.301204  -1.045786  2.099132
C    -1.305401  -1.345577  3.992792
C    -1.246384  -0.883299  5.458338
C    -0.633854  0.509159  5.642341
O    0.562737  0.728703  5.462562
N    -1.511688  1.474455  6.076485
H    -0.301015  -1.314545  3.547501
H    -1.634743  -2.396495  3.966897
H    -0.587612  -1.571817  6.006628
H    -2.239973  -0.937701  5.928289
H    -2.506424  1.351637  5.887028
H    -1.152051  2.425408  6.099590
N    -4.476363  -1.397591  3.487004
C    -5.803137  -1.468777  4.082271
H    -4.169058  -2.151062  2.879009
H    -5.954309  -0.549579  4.658265
H    -5.888029  -2.335274  4.753435
H    -6.577116  -1.537066  3.305358
