29
Energy: -19156.5399751 eV PBE+vdW (tier 2 basis)
C    -0.083712  -0.105740  0.091676
C    -0.259055  0.611319  1.415763
O    0.402351  1.607077  1.712769
H    -0.179389  0.624949  -0.720297
H    -0.802084  -0.918839  -0.068446
H    0.933772  -0.514730  0.045753
N    -1.211955  0.083317  2.245441
C    -1.420364  0.580403  3.598355
C    -0.795461  -0.424691  4.584210
O    -1.238572  -1.569790  4.674019
H    -1.617446  -0.820346  2.022498
H    -0.901419  1.545503  3.630118
C    -2.910138  0.770192  3.911589
C    -3.558465  1.834744  3.027486
C    -5.082020  1.812398  3.118519
O    -5.726747  0.773650  3.203282
N    -5.685210  3.040515  3.078677
H    -3.013756  1.044740  4.972358
H    -3.440297  -0.184266  3.790407
H    -3.304286  1.636720  1.972958
H    -3.162934  2.834971  3.260464
H    -5.160251  3.896659  2.965517
H    -6.697090  3.079235  3.056361
N    0.264372  0.001798  5.326049
C    0.947230  1.288967  5.273998
H    0.624088  -0.706495  5.958798
H    1.919960  1.181194  5.766249
H    0.389678  2.079502  5.799627
H    1.127172  1.604230  4.238122
