29
Energy: -19155.5062969 eV PBE+vdW (tier 2 basis)
C    -3.514349  0.585387  0.440256
C    -2.245118  0.723173  1.262648
O    -1.127626  0.766615  0.743837
H    -3.614639  -0.462827  0.124226
H    -3.416076  1.198031  -0.463045
H    -4.421657  0.876157  0.985093
N    -2.438908  0.802363  2.621959
C    -1.323903  0.718225  3.561441
C    -1.029706  -0.766710  3.861478
O    -1.877311  -1.474100  4.421982
H    -3.348074  0.520571  2.983665
H    -0.470210  1.203632  3.076519
C    -1.677981  1.473139  4.856957
C    -0.748982  1.177697  6.039282
C    0.718946  1.508619  5.776997
O    1.088192  2.326942  4.935826
N    1.611846  0.817859  6.556361
H    -2.698208  1.195147  5.163567
H    -1.673799  2.548031  4.629000
H    -0.853743  0.126741  6.350115
H    -1.064029  1.789753  6.900819
H    1.306804  0.195822  7.295883
H    2.589396  1.088424  6.516378
N    0.194260  -1.246817  3.508021
C    1.247659  -0.577086  2.740203
H    0.315580  -2.232618  3.731909
H    1.960647  -1.342704  2.413099
H    1.788482  0.164336  3.346305
H    0.829507  -0.089803  1.849219
