29
Energy: -19155.4085606 eV PBE+vdW (tier 2 basis)
C    -1.571220  0.697393  0.044589
C    -0.967941  0.059404  1.281589
O    -0.066518  -0.779672  1.214990
H    -2.293546  1.493480  0.264765
H    -2.067059  -0.083874  -0.546741
H    -0.758075  1.106631  -0.567759
N    -1.481365  0.500467  2.478850
C    -1.098232  -0.107700  3.750725
C    -2.212599  -1.085945  4.174846
O    -3.325823  -0.654837  4.496047
H    -2.353400  1.025825  2.469484
H    -0.151138  -0.624641  3.552718
C    -0.903994  0.950900  4.846864
C    0.204292  1.951060  4.505091
C    0.488983  3.038606  5.539614
O    1.624966  3.462143  5.738187
N    -0.603289  3.563836  6.187527
H    -0.670235  0.429476  5.789034
H    -1.879813  1.441782  4.999583
H    -0.032865  2.460227  3.556249
H    1.161008  1.434989  4.346855
H    -1.511325  3.114626  6.161310
H    -0.421569  4.236075  6.926287
N    -1.926307  -2.417150  4.159272
C    -0.684054  -3.077206  3.760594
H    -2.707143  -2.998889  4.457341
H    0.075544  -3.045833  4.557614
H    -0.275546  -2.629396  2.845369
H    -0.910735  -4.128776  3.550107
