29
Energy: -19156.5945733 eV PBE+vdW (tier 2 basis)
C    0.002262  -0.329274  0.139155
C    -0.114590  -0.666380  1.612534
O    0.551703  -1.556513  2.142164
H    1.038473  -0.039008  -0.074593
H    -0.667754  0.477176  -0.182034
H    -0.211676  -1.231837  -0.446394
N    -1.003311  0.092215  2.319579
C    -1.279916  -0.156858  3.715913
C    -2.710052  0.334157  3.984248
O    -3.288871  1.107233  3.225230
H    -1.626317  0.757609  1.866523
H    -1.233574  -1.247031  3.877854
C    -0.215936  0.475378  4.658228
C    0.105030  1.953862  4.418374
C    -0.888243  3.049885  4.806423
O    -0.861871  4.145025  4.258404
N    -1.728057  2.789075  5.860604
H    0.704530  -0.101632  4.493326
H    -0.498926  0.284876  5.706173
H    0.335071  2.123266  3.359111
H    1.030658  2.198704  4.963371
H    -1.932258  1.838719  6.144596
H    -2.440269  3.487537  6.041871
N    -3.262553  -0.112004  5.152255
C    -4.619601  0.240797  5.538222
H    -2.813530  -0.888937  5.623908
H    -4.717387  0.189845  6.628738
H    -5.367457  -0.423038  5.079382
H    -4.822095  1.262899  5.200981
