29
Energy: -19156.5603446 eV PBE+vdW (tier 2 basis)
C    -0.483166  0.139913  -0.167415
C    -0.352088  0.282626  1.338634
O    0.671742  0.687304  1.874365
H    -0.248360  1.105120  -0.631914
H    -1.477085  -0.183468  -0.501068
H    0.265330  -0.581928  -0.517823
N    -1.478449  -0.060929  2.057960
C    -1.451199  -0.164879  3.521568
C    -2.663599  -0.955885  4.023844
O    -2.562275  -1.800573  4.917063
H    -2.172654  -0.618647  1.572076
H    -0.562331  -0.736833  3.823729
C    -1.398214  1.230110  4.193481
C    -1.491812  1.211059  5.729103
C    -0.265102  0.594984  6.410641
O    0.708516  1.275055  6.720976
N    -0.344088  -0.746630  6.651828
H    -2.222396  1.839847  3.790909
H    -0.461117  1.709018  3.882731
H    -2.410580  0.702234  6.057608
H    -1.541530  2.247793  6.082248
H    -1.085756  -1.315805  6.242925
H    0.485556  -1.202323  7.013504
N    -3.855904  -0.638101  3.443369
C    -5.116020  -1.218385  3.875869
H    -3.880957  0.164776  2.823416
H    -5.750762  -1.437505  3.008766
H    -5.659434  -0.547650  4.557564
H    -4.894369  -2.147861  4.409419
