29
Energy: -19155.7044824 eV PBE+vdW (tier 2 basis)
C    -0.912086  2.435591  -0.397188
C    -0.677435  1.330579  0.620300
O    0.328441  0.615869  0.591626
H    -0.068017  3.136525  -0.356564
H    -1.846672  2.988307  -0.238894
H    -0.919391  1.990337  -1.400533
N    -1.646373  1.214187  1.582782
C    -1.684733  0.097327  2.517028
C    -3.155075  0.025528  3.007378
O    -4.039699  0.665187  2.421085
H    -2.575732  1.615416  1.424043
H    -1.489794  -0.839842  1.962874
C    -0.585853  0.207405  3.597583
C    -0.695699  1.426096  4.517533
C    -1.486073  1.169105  5.801605
O    -1.690069  0.040874  6.260118
N    -1.932628  2.289571  6.440567
H    0.363535  0.240905  3.048292
H    -0.557608  -0.708002  4.207728
H    -1.115255  2.286492  3.971717
H    0.312386  1.733888  4.841371
H    -1.748992  3.220734  6.086020
H    -2.388767  2.184765  7.341262
N    -3.400145  -0.818140  4.041871
C    -4.728713  -0.920842  4.631626
H    -2.615573  -1.039605  4.657424
H    -4.898427  -1.947349  4.979926
H    -5.469143  -0.664007  3.867016
H    -4.843408  -0.231902  5.483403
