29
Energy: -19156.2560123 eV PBE+vdW (tier 2 basis)
C    -0.174266  -0.081902  -0.276088
C    0.070444  0.030913  1.210938
O    1.219850  0.041320  1.671212
H    0.799343  -0.173814  -0.763766
H    -0.689149  0.800887  -0.678324
H    -0.801281  -0.952687  -0.503422
N    -0.992869  0.066505  2.084112
C    -2.341363  0.623146  1.939506
C    -2.997181  0.231970  0.595023
O    -3.175020  -0.949376  0.315095
H    -0.655048  0.077370  3.045349
H    -2.967429  0.075198  2.661856
C    -2.369146  2.112386  2.357538
C    -1.283508  3.019182  1.716735
C    -0.294402  3.532431  2.767918
O    -0.556701  4.523865  3.444984
N    0.852130  2.814964  2.924369
H    -2.251530  2.146160  3.450418
H    -3.377164  2.515975  2.182139
H    -1.742015  3.917561  1.286193
H    -0.755280  2.498036  0.907094
H    1.485193  3.115617  3.656421
H    1.067224  1.947242  2.431836
N    -3.389745  1.259805  -0.208826
C    -4.055139  1.042992  -1.480132
H    -3.195796  2.209596  0.081500
H    -5.014056  1.576704  -1.517502
H    -4.236154  -0.032154  -1.579352
H    -3.428850  1.377228  -2.319572
