29
Energy: -19156.626171 eV PBE+vdW (tier 2 basis)
C    0.508948  -0.019645  0.121054
C    0.314627  0.098906  1.618718
O    1.280856  0.152492  2.388872
H    1.213568  0.753160  -0.207194
H    -0.418890  0.066103  -0.457386
H    0.967922  -0.994129  -0.091393
N    -0.980549  0.137514  2.043812
C    -1.466569  0.087780  3.431610
C    -1.206073  1.350320  4.294729
O    -2.135207  1.826632  4.949851
H    -1.693652  0.131006  1.325828
H    -2.560829  0.071455  3.348747
C    -1.019611  -1.183597  4.181103
C    -1.599478  -2.467394  3.566956
C    -1.071170  -3.707267  4.280283
O    -0.027101  -4.260075  3.955542
N    -1.834615  -4.146371  5.329694
H    -1.354232  -1.079386  5.223658
H    0.076423  -1.242750  4.194819
H    -1.290036  -2.556282  2.517921
H    -2.700382  -2.434532  3.595253
H    -2.662268  -3.655414  5.639190
H    -1.482645  -4.910331  5.893848
N    0.066155  1.810628  4.301607
C    0.475053  2.952908  5.094210
H    0.752689  1.294058  3.738074
H    0.943064  3.720162  4.462023
H    1.192042  2.658316  5.874261
H    -0.415003  3.374357  5.573171
