29
Energy: -19155.308474 eV PBE+vdW (tier 2 basis)
C    -2.903995  0.899814  0.579823
C    -2.295716  0.320199  1.846256
O    -2.617176  -0.779861  2.292825
H    -2.318916  1.718733  0.141583
H    -3.910521  1.274057  0.814220
H    -3.014841  0.094034  -0.155028
N    -1.346010  1.107113  2.454758
C    -0.791649  0.809892  3.779002
C    -0.312912  -0.655987  3.921001
O    -0.584869  -1.325937  4.921299
H    -1.192512  2.042539  2.089953
H    0.118717  1.430175  3.865969
C    -1.777790  1.240995  4.885835
C    -1.252185  1.188557  6.335860
C    0.177328  1.707960  6.444821
O    0.473110  2.895170  6.292387
N    1.112425  0.741366  6.713640
H    -2.681690  0.621001  4.808910
H    -2.059766  2.277973  4.649569
H    -1.327307  0.165978  6.720652
H    -1.877716  1.844744  6.957325
H    0.867764  -0.238353  6.593310
H    2.091118  1.010289  6.670391
N    0.549190  -1.150129  2.977999
C    0.996383  -0.582210  1.714945
H    0.756118  -2.132955  3.144121
H    0.250148  -0.691184  0.911841
H    1.912558  -1.104772  1.412326
H    1.243711  0.480796  1.824410
