29
Energy: -19156.5890413 eV PBE+vdW (tier 2 basis)
C    -2.037570  -0.731769  -0.762326
C    -1.304694  -1.037418  0.531125
O    -0.137868  -1.416246  0.547344
H    -1.454557  -1.150957  -1.586488
H    -2.116236  0.355061  -0.905866
H    -3.053673  -1.149642  -0.785208
N    -2.005443  -0.881055  1.704665
C    -3.348905  -0.369658  1.882521
C    -3.522108  1.065944  1.329273
O    -2.653694  1.934716  1.430044
H    -1.458790  -1.094880  2.535396
H    -4.062852  -1.025783  1.350228
C    -3.748948  -0.400426  3.377783
C    -3.105341  0.663662  4.284586
C    -1.591197  0.492193  4.428747
O    -1.115140  -0.423006  5.099503
N    -0.835721  1.417656  3.770118
H    -3.515365  -1.403050  3.766449
H    -4.840917  -0.288861  3.432797
H    -3.523607  0.543806  5.292493
H    -3.357595  1.673255  3.935167
H    -1.256987  1.892146  2.970069
H    0.160581  1.227673  3.724074
N    -4.737249  1.295137  0.763944
C    -5.142078  2.589137  0.245906
H    -5.374227  0.512392  0.672694
H    -6.053480  2.946030  0.744134
H    -5.321709  2.544350  -0.837049
H    -4.326905  3.293319  0.441092
