29
Energy: -19155.7221599 eV PBE+vdW (tier 2 basis)
C    0.030038  -1.411953  0.815833
C    0.582127  -1.548928  2.224084
O    1.606919  -2.181308  2.476535
H    -0.611442  -0.530126  0.690510
H    -0.555789  -2.309576  0.569613
H    0.871879  -1.364613  0.115995
N    -0.187733  -0.945124  3.204825
C    0.342222  -0.747396  4.554909
C    -0.403043  -1.539492  5.652455
O    -0.119000  -1.377887  6.841485
H    -0.817896  -0.208558  2.879305
H    1.364726  -1.162834  4.540361
C    0.382806  0.742662  4.934791
C    1.297431  1.587459  4.045364
C    0.713214  1.914783  2.669207
O    -0.495453  1.882084  2.415382
N    1.629757  2.281487  1.726720
H    0.720757  0.796025  5.977413
H    -0.636317  1.160713  4.906011
H    2.281723  1.105606  3.928569
H    1.482313  2.557966  4.535946
H    2.624267  2.303446  1.919327
H    1.296621  2.568336  0.811861
N    -1.352405  -2.403222  5.200655
C    -2.104178  -3.275356  6.084485
H    -1.465564  -2.462488  4.191496
H    -1.856389  -4.332941  5.909318
H    -3.186124  -3.133464  5.950145
H    -1.831467  -3.012301  7.113399
