29
Energy: -19156.527846 eV PBE+vdW (tier 2 basis)
C    0.188077  0.202827  0.154462
C    0.334636  0.182703  1.661141
O    1.424639  0.039314  2.211534
H    1.148026  0.497214  -0.278898
H    -0.599368  0.881244  -0.200089
H    -0.051883  -0.814214  -0.187159
N    -0.805167  0.306572  2.417225
C    -2.192812  0.400904  2.011334
C    -2.966626  0.878115  3.251958
O    -2.567525  0.617938  4.389042
H    -0.666447  0.277743  3.427198
H    -2.299083  1.144020  1.206222
C    -2.809011  -0.939675  1.511025
C    -2.523654  -2.134059  2.428607
C    -1.114199  -2.683570  2.205995
O    -0.697432  -2.939539  1.079107
N    -0.378124  -2.916993  3.331858
H    -2.408407  -1.168170  0.513932
H    -3.894550  -0.808601  1.394377
H    -3.212763  -2.950793  2.168184
H    -2.704072  -1.881979  3.482851
H    -0.643781  -2.484423  4.207722
H    0.607143  -3.119253  3.197845
N    -4.134002  1.548253  3.043858
C    -4.679694  2.037736  1.786849
H    -4.608188  1.804932  3.903836
H    -5.605243  2.580459  2.004356
H    -4.928129  1.221761  1.093934
H    -3.994625  2.733042  1.280208
