29
Energy: -19155.8834997 eV PBE+vdW (tier 2 basis)
C    -0.081959  -0.560761  0.237652
C    -0.850083  0.228941  1.283337
O    -0.829421  1.467301  1.311960
H    -0.249478  -1.643485  0.294335
H    0.989601  -0.355502  0.363158
H    -0.370084  -0.200536  -0.758194
N    -1.566948  -0.516334  2.170175
C    -2.228408  0.057514  3.328053
C    -2.417436  -1.104679  4.332074
O    -2.127661  -2.269527  4.023911
H    -1.464828  -1.533868  2.233924
H    -1.544214  0.790166  3.790553
C    -3.567380  0.776880  2.983204
C    -3.455009  2.300549  3.022134
C    -3.235998  2.845204  4.429035
O    -3.362960  2.167374  5.458697
N    -2.918531  4.169817  4.496768
H    -4.359915  0.448233  3.670255
H    -3.864296  0.461440  1.973985
H    -4.379183  2.759999  2.633503
H    -2.628426  2.621425  2.367581
H    -2.674463  4.695752  3.665262
H    -2.702751  4.564777  5.406791
N    -2.903445  -0.720876  5.534703
C    -3.164490  -1.663084  6.609503
H    -3.124046  0.276213  5.659999
H    -4.238206  -1.707713  6.846329
H    -2.614211  -1.377539  7.517451
H    -2.829772  -2.653681  6.281861
