29
Energy: -19156.3803697 eV PBE+vdW (tier 2 basis)
C    -0.582062  -1.191012  0.248030
C    -0.672409  0.240064  0.741285
O    -0.017167  1.145731  0.221936
H    -0.772778  -1.203144  -0.831844
H    -1.276186  -1.880382  0.743938
H    0.444027  -1.548933  0.400971
N    -1.535042  0.450131  1.777329
C    -1.756742  1.727736  2.461036
C    -1.785195  2.952785  1.512813
O    -1.136650  3.960837  1.763404
H    -2.002484  -0.361374  2.163601
H    -2.785458  1.664264  2.857275
C    -0.836543  1.926316  3.683895
C    0.677167  1.732374  3.482234
C    1.429822  2.987970  3.031430
O    1.705479  3.878889  3.829482
N    1.826568  2.997368  1.724205
H    -1.173459  1.202124  4.441536
H    -1.025754  2.926990  4.095208
H    0.876311  0.885447  2.811219
H    1.112031  1.476232  4.457074
H    1.315418  2.415556  1.060748
H    2.157420  3.893290  1.381606
N    -2.665825  2.926356  0.464018
C    -3.521002  1.857687  -0.014076
H    -2.597590  3.762259  -0.107885
H    -4.328797  2.298441  -0.610290
H    -3.988497  1.318945  0.819531
H    -2.986583  1.128634  -0.644072
