29
Energy: -19156.651024 eV PBE+vdW (tier 2 basis)
C    -0.009576  -1.714252  0.621666
C    -0.266408  -0.724421  1.740581
O    0.620161  -0.349348  2.513081
H    1.040585  -1.642640  0.322730
H    -0.656542  -1.540202  -0.247805
H    -0.188483  -2.735394  0.986604
N    -1.558688  -0.294153  1.834726
C    -1.995387  0.735520  2.771571
C    -3.085325  0.135913  3.684184
O    -4.270045  0.146259  3.351582
H    -2.220372  -0.571673  1.116361
H    -1.099376  0.994814  3.350552
C    -2.513132  1.981632  2.043920
C    -1.435048  2.663179  1.194028
C    -1.082190  1.892348  -0.077625
O    -1.936006  1.453749  -0.844096
N    0.256428  1.775145  -0.334995
H    -2.885853  2.689199  2.797949
H    -3.374693  1.716015  1.416875
H    -0.535108  2.864320  1.794347
H    -1.813887  3.639264  0.854718
H    0.942865  1.927961  0.392882
H    0.532035  1.222151  -1.138470
N    -2.673093  -0.443612  4.847988
C    -1.333075  -0.527399  5.412314
H    -3.442114  -0.820416  5.394700
H    -1.258029  -1.443523  6.010502
H    -1.103543  0.328422  6.067093
H    -0.570859  -0.581459  4.626994
