29
Energy: -19156.252353 eV PBE+vdW (tier 2 basis)
C    0.007044  0.711657  -0.131961
C    -0.260488  -0.216917  1.034577
O    0.585855  -1.037170  1.387833
H    -0.728848  0.595144  -0.937089
H    0.998045  0.461721  -0.519356
H    -0.001750  1.763686  0.177968
N    -1.446924  -0.155184  1.738335
C    -2.727247  0.554507  1.651194
C    -3.921566  -0.416653  1.486726
O    -4.918148  -0.280677  2.210368
H    -1.411054  -0.821302  2.507585
H    -2.904384  0.982847  2.649045
C    -2.826087  1.721328  0.651711
C    -4.160613  2.483653  0.745455
C    -4.320895  3.226646  2.075400
O    -3.784196  4.314605  2.270066
N    -5.097192  2.593838  3.001388
H    -2.703110  1.367051  -0.379982
H    -2.009896  2.427508  0.854274
H    -5.009050  1.809856  0.564408
H    -4.168373  3.251683  -0.037425
H    -5.314646  1.601531  2.891543
H    -5.142921  3.006522  3.926347
N    -3.888354  -1.400380  0.549474
C    -2.869937  -1.737403  -0.436023
H    -4.728911  -1.970402  0.564867
H    -1.993944  -2.224114  0.012244
H    -2.535432  -0.853294  -0.991606
H    -3.317749  -2.426650  -1.159881
