29
Energy: -19156.3680101 eV PBE+vdW (tier 2 basis)
C    -0.328270  -0.462325  0.238165
C    -0.205685  0.260431  1.565215
O    0.761682  0.962632  1.848847
H    -0.468089  -1.544147  0.371201
H    0.589411  -0.286066  -0.328233
H    -1.185444  -0.089687  -0.341052
N    -1.241882  0.108400  2.457770
C    -2.505989  -0.565661  2.237028
C    -3.575324  0.146345  1.369916
O    -4.492306  -0.552670  0.924136
H    -1.120982  0.654855  3.305955
H    -2.308781  -1.476253  1.653707
C    -3.120260  -1.050564  3.568076
C    -3.496936  0.029051  4.592454
C    -4.618633  1.013504  4.251511
O    -4.527058  2.202425  4.547865
N    -5.749267  0.485429  3.690919
H    -2.387810  -1.725932  4.033479
H    -3.989288  -1.674337  3.317151
H    -2.635010  0.650683  4.869418
H    -3.802753  -0.476820  5.522038
H    -5.707348  -0.377990  3.159390
H    -6.444124  1.158964  3.386972
N    -3.511108  1.474761  1.085956
C    -2.695520  2.559276  1.634583
H    -4.297196  1.754361  0.505945
H    -3.116626  3.499103  1.262157
H    -1.649948  2.504968  1.310473
H    -2.744067  2.597879  2.729941
