29
Energy: -19156.5611214 eV PBE+vdW (tier 2 basis)
C    -0.156254  -0.482643  1.765295
C    -0.629234  0.446729  2.865977
O    0.126886  0.822627  3.755641
H    -0.949327  -1.073668  1.294681
H    0.597014  -1.151688  2.193660
H    0.337463  0.115778  0.987387
N    -1.953792  0.853183  2.875109
C    -2.991258  0.723975  1.846280
C    -3.589756  -0.701427  1.747653
O    -4.332358  -1.025531  0.815115
H    -2.121031  1.546855  3.599333
H    -3.831344  1.326810  2.229228
C    -2.579570  1.353451  0.493863
C    -3.708544  1.587328  -0.526909
C    -4.908981  2.300000  0.090233
O    -4.903195  3.500653  0.351921
N    -5.979860  1.486861  0.334769
H    -1.802845  0.744679  0.013485
H    -2.122692  2.321212  0.743502
H    -4.011033  0.637455  -0.979288
H    -3.321828  2.242794  -1.318236
H    -5.852298  0.477845  0.315610
H    -6.769626  1.879173  0.834350
N    -3.295422  -1.524783  2.783260
C    -3.820033  -2.871088  2.897921
H    -2.687816  -1.151883  3.505606
H    -3.006234  -3.607597  2.942841
H    -4.433484  -3.068653  2.012736
H    -4.443339  -2.977508  3.796493
