29
Energy: -19156.392674 eV PBE+vdW (tier 2 basis)
C    -0.224163  0.224319  1.595305
C    -0.967729  -0.877654  2.317543
O    -0.843917  -1.073408  3.527765
H    0.316801  0.813650  2.339847
H    -0.892257  0.877932  1.020764
H    0.492131  -0.198649  0.877582
N    -1.774272  -1.710979  1.574409
C    -2.397240  -1.479143  0.264806
C    -1.353801  -1.409926  -0.877030
O    -1.221312  -0.414104  -1.584941
H    -2.230476  -2.403563  2.162144
H    -2.994468  -2.385897  0.090412
C    -3.362701  -0.274308  0.205791
C    -4.052693  0.041869  1.537002
C    -4.731202  -1.169166  2.170638
O    -5.410075  -1.959921  1.519349
N    -4.549484  -1.299557  3.520196
H    -4.117864  -0.493927  -0.559994
H    -2.819931  0.610696  -0.148780
H    -4.840836  0.788436  1.355564
H    -3.350999  0.503355  2.245957
H    -3.818161  -0.792939  4.004694
H    -4.941321  -2.117923  3.972149
N    -0.583078  -2.521466  -1.067162
C    -0.614802  -3.789277  -0.356476
H    0.094478  -2.410877  -1.814728
H    -0.099810  -4.540546  -0.965323
H    -1.645161  -4.139084  -0.207175
H    -0.123006  -3.733482  0.625077
