29
Energy: -19156.8059702 eV PBE+vdW (tier 2 basis)
C    -0.382392  0.076589  -0.432186
C    -0.314801  0.291629  1.069701
O    0.622814  0.887670  1.601526
H    0.497532  -0.500709  -0.742924
H    -0.326330  1.051155  -0.932743
H    -1.289216  -0.444606  -0.761747
N    -1.377229  -0.202020  1.773980
C    -1.400687  -0.257338  3.227069
C    -2.523616  -1.261795  3.581247
O    -2.874168  -2.113780  2.755254
H    -1.983278  -0.904753  1.347760
H    -0.457684  -0.712609  3.584456
C    -1.490960  1.130107  3.882124
C    -2.790741  1.904989  3.609672
C    -3.580308  2.202376  4.879687
O    -3.541530  1.478183  5.878271
N    -4.364668  3.312438  4.840841
H    -0.627885  1.700452  3.520565
H    -1.353487  1.015731  4.966258
H    -3.460109  1.320660  2.955285
H    -2.590543  2.837578  3.064974
H    -4.385852  3.927170  4.038915
H    -4.942458  3.530766  5.643496
N    -3.039986  -1.182243  4.826362
C    -4.095525  -2.088910  5.246448
H    -2.941799  -0.309246  5.354529
H    -5.009298  -1.960886  4.646621
H    -4.325604  -1.889247  6.297842
H    -3.768652  -3.130219  5.138348
