29
Energy: -19155.8547434 eV PBE+vdW (tier 2 basis)
C    1.368244  -1.412784  1.696330
C    0.369834  -0.818099  2.674184
O    0.378402  -1.101519  3.879087
H    1.237902  -2.503051  1.683627
H    2.383302  -1.208036  2.060008
H    1.264767  -1.027449  0.674198
N    -0.532365  0.051046  2.135042
C    -1.597414  0.651140  2.916476
C    -2.668224  1.113191  1.902890
O    -2.371405  1.299693  0.713694
H    -0.581849  0.254812  1.134660
H    -2.014531  -0.123051  3.580778
C    -1.039055  1.811194  3.782509
C    -2.018823  2.386977  4.827650
C    -2.743988  1.289248  5.596484
O    -3.893401  0.929522  5.301823
N    -2.054062  0.706164  6.617966
H    -0.698214  2.620156  3.119170
H    -0.150576  1.406366  4.288404
H    -2.791772  2.999589  4.346800
H    -1.464666  3.037351  5.520831
H    -1.050133  0.833877  6.696657
H    -2.440983  -0.152810  7.000473
N    -3.909930  1.302105  2.403803
C    -4.999416  1.780253  1.564056
H    -4.080455  1.134830  3.405254
H    -5.163236  1.103287  0.713824
H    -4.784030  2.781173  1.161895
H    -5.909923  1.823826  2.171427
