29
Energy: -19156.8679364 eV PBE+vdW (tier 2 basis)
C    -1.428022  -1.622611  -0.439369
C    -1.333090  -0.350842  0.377514
O    -0.295291  0.325138  0.390559
H    -1.132088  -1.402863  -1.471929
H    -0.706224  -2.346217  -0.038980
H    -2.424158  -2.080892  -0.438023
N    -2.453597  -0.012797  1.073797
C    -2.605175  1.058469  2.071504
C    -2.549183  2.503817  1.518816
O    -3.392234  3.337919  1.885595
H    -3.251668  -0.627202  0.971506
H    -3.637101  0.959136  2.429538
C    -1.653622  0.869549  3.275746
C    -1.870949  1.890237  4.405681
C    -3.235605  1.737912  5.083229
O    -3.421488  0.918987  5.981667
N    -4.211318  2.567822  4.613888
H    -0.614346  0.928261  2.927225
H    -1.808750  -0.145747  3.669354
H    -1.730732  2.914063  4.031221
H    -1.118142  1.711249  5.182705
H    -4.087142  3.063834  3.726802
H    -5.148670  2.428605  4.973944
N    -1.529433  2.796772  0.692888
C    -1.339920  4.131783  0.155245
H    -0.855056  2.045051  0.493045
H    -0.551512  4.095368  -0.603320
H    -1.049125  4.845387  0.939997
H    -2.267008  4.499236  -0.303065
