29
Energy: -19155.5665892 eV PBE+vdW (tier 2 basis)
C    1.500482  -4.250285  2.205565
C    1.331303  -3.209847  3.299320
O    1.488920  -3.463400  4.489652
H    1.077660  -3.948904  1.238383
H    1.032732  -5.185690  2.534056
H    2.573761  -4.447351  2.074172
N    0.976769  -1.945117  2.861154
C    1.015074  -0.786870  3.756134
C    -0.269062  -0.611779  4.595202
O    -0.245006  0.061432  5.633703
H    1.032809  -1.757732  1.862581
H    1.798473  -0.962480  4.509659
C    1.370043  0.455694  2.905668
C    1.247940  1.820890  3.605184
C    -0.138332  2.445318  3.405913
O    -0.566518  2.700965  2.279528
N    -0.821104  2.747359  4.555489
H    0.728577  0.485790  2.007890
H    2.404084  0.311952  2.557984
H    1.946895  2.519921  3.123691
H    1.519381  1.752603  4.666628
H    -0.635318  2.158531  5.368297
H    -1.785306  3.042946  4.419332
N    -1.384736  -1.200305  4.097363
C    -2.667809  -1.167300  4.777769
H    -1.254708  -1.804336  3.289656
H    -2.550359  -0.547282  5.673690
H    -2.979116  -2.177079  5.082091
H    -3.442529  -0.729644  4.132245
