29
Energy: -19155.8678736 eV PBE+vdW (tier 2 basis)
C    -0.639785  1.952545  1.166832
C    -1.400256  0.712884  1.593914
O    -2.043096  0.030487  0.770827
H    -1.340280  2.654548  0.695647
H    0.096042  1.663783  0.404580
H    -0.125248  2.450965  1.997360
N    -1.334977  0.411019  2.913552
C    -1.862339  -0.830745  3.484043
C    -3.404716  -0.783284  3.712258
O    -3.925779  -0.911135  4.828730
H    -0.770918  0.991334  3.558392
H    -1.690246  -1.623343  2.734648
C    -1.095502  -1.218277  4.758473
C    -1.242120  -0.305167  5.994993
C    -0.363399  0.933397  6.034378
O    0.033601  1.545949  5.031199
N    -0.026210  1.368376  7.283299
H    -0.032274  -1.334335  4.497331
H    -1.461721  -2.211354  5.052644
H    -1.047902  -0.903448  6.898068
H    -2.294135  0.015888  6.070196
H    -0.409878  0.942006  8.118331
H    0.449099  2.262036  7.363961
N    -4.110448  -0.622449  2.568329
C    -5.559352  -0.503873  2.576371
H    -3.568668  -0.480945  1.701483
H    -5.887706  0.401860  3.109583
H    -6.016784  -1.370690  3.073656
H    -5.911006  -0.456031  1.539922
