29
Energy: -19156.5467462 eV PBE+vdW (tier 2 basis)
C    0.001807  0.176986  -0.149765
C    0.019769  0.105039  1.363990
O    1.033999  0.400915  2.008008
H    0.791407  -0.477357  -0.539656
H    0.246813  1.201518  -0.455948
H    -0.955181  -0.112782  -0.600073
N    -1.142750  -0.302133  1.947722
C    -1.391713  -0.492371  3.385340
C    -1.485517  0.835920  4.186482
O    -2.520186  1.115759  4.789629
H    -1.939395  -0.437922  1.337940
H    -2.409170  -0.896761  3.450083
C    -0.416532  -1.505108  4.019609
C    -0.785377  -1.888647  5.456709
C    -2.066958  -2.686211  5.701881
O    -2.659641  -2.636553  6.770804
N    -2.508187  -3.476225  4.667642
H    0.598954  -1.090170  4.011056
H    -0.371813  -2.391288  3.364911
H    -0.865892  -0.997875  6.093406
H    0.031974  -2.490180  5.885427
H    -1.935171  -3.662891  3.855327
H    -3.275129  -4.107938  4.865784
N    -0.357754  1.590941  4.189268
C    -0.282804  2.866352  4.874565
H    0.404306  1.292709  3.571830
H    0.641635  2.930726  5.463312
H    -1.145317  2.946939  5.544448
H    -0.307653  3.709398  4.167553
