29
Energy: -19155.8442032 eV PBE+vdW (tier 2 basis)
C    -2.198231  -2.136483  -0.794577
C    -1.389175  -1.915946  0.466766
O    -0.385669  -2.603463  0.729260
H    -2.492900  -3.192326  -0.846504
H    -1.554642  -1.933322  -1.661085
H    -3.091270  -1.502535  -0.854683
N    -1.829586  -0.922014  1.284387
C    -1.077598  -0.482009  2.470006
C    -1.353243  -1.414125  3.688804
O    -2.025574  -1.073594  4.674144
H    -2.654623  -0.377230  1.019138
H    -0.013166  -0.614472  2.214294
C    -1.308089  1.016386  2.734555
C    -2.665074  1.467752  3.327918
C    -3.864357  0.787547  2.678946
O    -4.147321  0.941229  1.481165
N    -4.591627  -0.009712  3.512811
H    -1.139759  1.530344  1.776205
H    -0.518716  1.360504  3.418010
H    -2.778057  2.546189  3.142990
H    -2.671978  1.300067  4.409721
H    -4.110558  -0.385298  4.330715
H    -5.304937  -0.589116  3.076649
N    -0.765942  -2.629198  3.553676
C    -0.960863  -3.702958  4.513547
H    -0.353156  -2.830475  2.630766
H    -1.617253  -4.488137  4.107400
H    -1.425650  -3.279484  5.410919
H    0.004017  -4.154121  4.782056
