29
Energy: -19156.6100096 eV PBE+vdW (tier 2 basis)
C    0.073973  0.040457  0.023915
C    0.059654  0.366142  1.505933
O    1.053750  0.773661  2.100686
H    0.427195  0.920159  -0.527267
H    -0.901975  -0.264190  -0.374114
H    0.796431  -0.767112  -0.149012
N    -1.142405  0.174575  2.138116
C    -1.288721  0.355757  3.580456
C    -2.342201  -0.629998  4.117787
O    -2.034403  -1.562690  4.855851
H    -1.919893  -0.214201  1.617939
H    -0.338585  0.049448  4.038053
C    -1.551109  1.830309  3.952170
C    -1.702536  2.062572  5.461710
C    -3.094681  1.711228  5.986645
O    -4.114874  2.198708  5.502354
N    -3.127567  0.856542  7.050312
H    -2.444217  2.216112  3.436063
H    -0.696431  2.406749  3.575038
H    -1.567635  3.133163  5.672933
H    -0.916003  1.527920  6.014279
H    -2.327547  0.276472  7.270400
H    -4.037067  0.538328  7.365816
N    -3.619795  -0.392565  3.688737
C    -4.755806  -1.124390  4.221908
H    -3.813687  0.533625  3.319689
H    -5.458624  -1.382568  3.419834
H    -5.284946  -0.526521  4.979267
H    -4.379366  -2.041830  4.684955
