29
Energy: -19155.7121034 eV PBE+vdW (tier 2 basis)
C    -0.992985  1.943448  -0.586807
C    -0.679940  1.117574  0.650737
O    0.462158  0.719575  0.898646
H    -0.783815  1.332323  -1.475089
H    -0.313943  2.805170  -0.615987
H    -2.030581  2.297384  -0.629577
N    -1.750498  0.876918  1.472377
C    -1.691446  -0.064600  2.585201
C    -3.171209  -0.372720  2.932003
O    -4.051366  -0.214954  2.072602
H    -2.700057  0.967321  1.099085
H    -1.254999  -1.017741  2.229047
C    -0.797790  0.427798  3.736144
C    -1.275942  1.716651  4.429059
C    -1.628982  1.504546  5.898318
O    -2.017895  0.419609  6.349165
N    -1.518116  2.601989  6.697865
H    0.200424  0.579220  3.307428
H    -0.699252  -0.376673  4.479272
H    -2.185264  2.104368  3.937218
H    -0.527131  2.516515  4.335706
H    -1.171359  3.488111  6.351019
H    -1.779367  2.519493  7.675236
N    -3.419181  -0.867104  4.167938
C    -4.785581  -1.175762  4.571589
H    -2.750288  -0.669183  4.923374
H    -4.753433  -1.697024  5.534592
H    -5.258084  -1.821239  3.821184
H    -5.400080  -0.267015  4.672654
