29
Energy: -19156.7510382 eV PBE+vdW (tier 2 basis)
C    0.096341  -0.152939  -0.168652
C    -0.066674  0.658555  1.100512
O    0.851824  1.367652  1.528956
H    0.893664  -0.890125  -0.009011
H    0.424769  0.514267  -0.974359
H    -0.813223  -0.678644  -0.483226
N    -1.277468  0.549680  1.717239
C    -1.672898  1.116059  3.016319
C    -1.823976  2.655606  3.052169
O    -2.865931  3.148951  3.507783
H    -1.972688  -0.024162  1.257043
H    -2.699232  0.764303  3.179934
C    -0.794650  0.584459  4.172459
C    -1.212607  1.111979  5.557590
C    -0.522340  2.425063  5.942143
O    0.685834  2.472938  6.153958
N    -1.346821  3.507977  6.089321
H    0.261359  0.826329  3.995063
H    -0.878591  -0.511715  4.156762
H    -0.886345  0.388054  6.316068
H    -2.306190  1.195270  5.633856
H    -2.224423  3.530023  5.573497
H    -0.882782  4.397969  6.239245
N    -0.749766  3.362748  2.651176
C    -0.683317  4.807062  2.737993
H    0.062822  2.824053  2.321095
H    -0.300913  5.229250  1.799888
H    -0.021289  5.121596  3.559041
H    -1.690511  5.193353  2.926207
