29
Energy: -19155.7272723 eV PBE+vdW (tier 2 basis)
C    -0.473066  -1.642896  0.829006
C    0.152258  -1.870107  2.195385
O    0.966623  -2.768874  2.407696
H    -1.183170  -2.456266  0.623060
H    0.316997  -1.701452  0.070521
H    -0.997864  -0.682904  0.745121
N    -0.301030  -1.019070  3.185336
C    0.383332  -0.947714  4.474948
C    -0.344671  -1.674721  5.628609
O    0.125486  -1.660268  6.768973
H    -0.720255  -0.133688  2.874406
H    1.340279  -1.485828  4.360831
C    0.644408  0.509791  4.893136
C    1.509771  1.312765  3.912299
C    0.730947  2.010925  2.795721
O    -0.436390  1.738043  2.490567
N    1.420908  2.982058  2.131790
H    1.136883  0.467283  5.872698
H    -0.316718  1.027094  5.044209
H    2.259868  0.658958  3.434520
H    2.080052  2.078834  4.460908
H    2.379389  3.217977  2.359484
H    0.969557  3.446953  1.350501
N    -1.501153  -2.298710  5.280394
C    -2.278987  -3.090258  6.214972
H    -1.753430  -2.260114  4.295583
H    -3.325879  -2.755401  6.236942
H    -1.835676  -2.954043  7.208585
H    -2.249466  -4.159366  5.955800
