29
Energy: -19155.6706569 eV PBE+vdW (tier 2 basis)
C    -0.612116  -1.984268  -0.653844
C    -0.896707  -1.226064  0.627237
O    -0.522602  -0.058448  0.783381
H    -1.143687  -1.488905  -1.477453
H    -0.907100  -3.040631  -0.621597
H    0.460904  -1.913033  -0.871401
N    -1.572941  -1.927164  1.595845
C    -2.057880  -1.327729  2.842434
C    -1.686512  -2.173612  4.085973
O    -2.313107  -2.064647  5.137784
H    -1.987343  -2.815583  1.320309
H    -1.502432  -0.381353  2.948345
C    -3.567833  -1.040018  2.803432
C    -3.979632  0.045794  1.792216
C    -3.640335  1.458823  2.279771
O    -4.413228  2.091179  3.000297
N    -2.436767  1.957524  1.863808
H    -3.880580  -0.752896  3.816317
H    -4.099044  -1.978499  2.571056
H    -5.071194  0.024301  1.679554
H    -3.539123  -0.149409  0.801646
H    -1.734053  1.372072  1.405962
H    -2.149763  2.848178  2.259158
N    -0.613127  -3.004279  3.924491
C    -0.060225  -3.780518  5.022712
H    -0.117726  -2.961071  3.038569
H    -0.765947  -3.715245  5.858618
H    0.911816  -3.380660  5.348476
H    0.063284  -4.832838  4.731903
