29
Energy: -19156.6889503 eV PBE+vdW (tier 2 basis)
C    -0.123257  -1.559925  0.553063
C    -0.330314  -1.038514  1.958099
O    0.560798  -1.136636  2.819001
H    0.787045  -1.108946  0.139835
H    -0.963108  -1.363196  -0.123651
H    0.044086  -2.643597  0.604853
N    -1.538453  -0.474751  2.213025
C    -2.021501  0.051218  3.500487
C    -1.463522  1.457607  3.839681
O    -2.229731  2.380169  4.109613
H    -2.179954  -0.394723  1.433712
H    -3.096452  0.215498  3.356959
C    -1.816410  -0.908728  4.691700
C    -2.301881  -2.349637  4.443948
C    -1.465981  -3.406057  5.168400
O    -1.940517  -4.162309  6.009794
N    -0.154425  -3.458636  4.782529
H    -2.354508  -0.471043  5.543372
H    -0.756535  -0.912126  4.967639
H    -2.262831  -2.577848  3.367231
H    -3.339120  -2.483923  4.768633
H    0.256825  -2.772078  4.153373
H    0.456486  -4.091791  5.283486
N    -0.107849  1.548727  3.840563
C    0.590761  2.776392  4.167483
H    0.423712  0.701309  3.631674
H    1.276482  3.064951  3.359040
H    1.167820  2.671327  5.097571
H    -0.156598  3.565017  4.303864
