29
Energy: -19156.4384236 eV PBE+vdW (tier 2 basis)
C    -0.153753  -0.237584  -0.076478
C    -0.163961  -0.677160  1.375062
O    0.649140  -1.488588  1.809555
H    0.273165  0.771062  -0.166616
H    -1.154120  -0.220359  -0.526194
H    0.483795  -0.932899  -0.628755
N    -1.090124  -0.113022  2.225583
C    -2.232501  0.752623  1.936470
C    -3.247011  0.037363  0.993674
O    -3.664422  -1.078923  1.297886
H    -1.078869  -0.558303  3.137432
H    -2.778661  0.807013  2.890834
C    -1.805979  2.189227  1.574315
C    -2.922479  3.242474  1.741323
C    -3.166845  4.047682  0.471724
O    -3.142026  3.525972  -0.646236
N    -3.444265  5.366886  0.637888
H    -1.425027  2.228495  0.545487
H    -0.960701  2.446100  2.224996
H    -2.713927  3.905037  2.591944
H    -3.883865  2.751038  1.967110
H    -3.450745  5.805499  1.548307
H    -3.660442  5.926666  -0.178531
N    -3.635345  0.693885  -0.127190
C    -4.601756  0.100340  -1.034729
H    -3.294563  1.634570  -0.350393
H    -4.883916  0.850821  -1.780409
H    -5.495655  -0.230893  -0.489753
H    -4.183451  -0.777705  -1.547903
