29
Energy: -19155.7244067 eV PBE+vdW (tier 2 basis)
C    1.107267  -1.772577  1.158921
C    1.224983  -1.658164  2.669525
O    2.207475  -2.066397  3.288687
H    0.330935  -1.123493  0.734349
H    0.879136  -2.815521  0.896286
H    2.079773  -1.529259  0.714919
N    0.122162  -1.103235  3.293282
C    0.192563  -0.679604  4.691446
C    -0.586484  -1.582472  5.675134
O    -0.649051  -1.291743  6.872260
H    -0.484050  -0.522468  2.703878
H    1.249560  -0.775070  4.995147
C    -0.277209  0.775057  4.863758
C    0.557854  1.808354  4.100998
C    0.161798  2.003546  2.634952
O    -0.719477  1.352385  2.062390
N    0.856631  2.977564  1.979006
H    -0.238464  0.988633  5.939402
H    -1.333038  0.860569  4.560313
H    1.628749  1.545256  4.137408
H    0.468753  2.789606  4.595236
H    1.575399  3.530078  2.431366
H    0.636866  3.155375  1.004306
N    -1.164897  -2.680617  5.119681
C    -1.867727  -3.678956  5.904354
H    -1.007644  -2.817186  4.123894
H    -2.883660  -3.840381  5.516315
H    -1.929996  -3.303287  6.932555
H    -1.328206  -4.637992  5.907233
