29
Energy: -19156.2900395 eV PBE+vdW (tier 2 basis)
C    0.071452  -0.145000  -0.623877
C    -0.392330  0.604749  0.604211
O    0.108836  1.671254  0.954585
H    0.132938  -1.230568  -0.479225
H    1.050528  0.249150  -0.909118
H    -0.633629  0.034781  -1.448934
N    -1.447608  0.089344  1.332865
C    -2.134478  -1.201339  1.237133
C    -1.171106  -2.405741  1.412567
O    -1.076022  -3.288466  0.563182
H    -1.691621  0.693628  2.111018
H    -2.812742  -1.218014  2.106902
C    -2.978104  -1.372236  -0.033328
C    -3.970971  -0.230174  -0.249855
C    -4.403295  -0.133002  -1.710888
O    -3.606481  -0.234227  -2.637131
N    -5.733724  0.102919  -1.918704
H    -3.500430  -2.336422  0.025564
H    -2.324010  -1.443393  -0.909513
H    -3.481351  0.730435  -0.019536
H    -4.838662  -0.315688  0.422321
H    -6.391111  0.202236  -1.157913
H    -6.058486  0.233824  -2.869108
N    -0.430965  -2.450235  2.561080
C    -0.407393  -1.528104  3.684275
H    0.203428  -3.242317  2.586280
H    0.043056  -2.040100  4.542083
H    -1.423060  -1.232850  3.981562
H    0.175012  -0.618965  3.475304
