29
Energy: -19156.6126272 eV PBE+vdW (tier 2 basis)
C    -2.157957  0.653797  -0.585976
C    -1.411283  -0.021909  0.547076
O    -0.287489  -0.505319  0.363753
H    -1.528871  1.455105  -0.992298
H    -3.131039  1.070277  -0.299507
H    -2.307746  -0.080559  -1.387451
N    -2.061000  -0.036349  1.744726
C    -1.705553  -0.674659  3.028155
C    -0.377697  -0.273951  3.706513
O    -0.356435  -0.256949  4.945606
H    -2.962272  0.424927  1.752059
H    -2.456348  -0.286562  3.727335
C    -1.876466  -2.218404  3.032751
C    -0.785838  -3.076788  2.377215
C    0.536637  -3.349798  3.102340
O    1.481321  -3.835135  2.486299
N    0.587110  -3.140827  4.456494
H    -2.833659  -2.426679  2.531806
H    -2.022110  -2.521734  4.080535
H    -0.510678  -2.691666  1.388334
H    -1.204526  -4.080326  2.200244
H    0.004612  -2.438277  4.906151
H    1.505231  -3.272313  4.868404
N    0.690194  -0.065275  2.915224
C    2.023976  0.127838  3.452319
H    0.566492  -0.243252  1.907340
H    2.544878  0.915063  2.893707
H    2.610323  -0.801191  3.383130
H    1.941973  0.418097  4.504501
