29
Energy: -19156.5575221 eV PBE+vdW (tier 2 basis)
C    0.396033  -1.016156  0.031357
C    -0.007325  -0.587809  1.433690
O    0.824263  -0.235667  2.266675
H    1.487082  -0.988622  -0.027147
H    -0.015785  -0.333570  -0.726485
H    0.049504  -2.029538  -0.212786
N    -1.344944  -0.598608  1.734642
C    -2.462195  -0.924351  0.869961
C    -3.661735  -0.104637  1.388729
O    -3.675989  0.313120  2.551210
H    -1.607664  -0.192062  2.632848
H    -2.233489  -0.611722  -0.159942
C    -2.780067  -2.446202  0.845808
C    -3.404790  -2.990058  2.134463
C    -4.920840  -2.791867  2.178364
O    -5.638950  -3.057558  1.215575
N    -5.423977  -2.365919  3.373047
H    -1.832722  -2.965858  0.651712
H    -3.449993  -2.684513  0.008300
H    -2.912070  -2.570554  3.022745
H    -3.249268  -4.078584  2.175699
H    -4.822787  -1.884088  4.030424
H    -6.415241  -2.154911  3.407725
N    -4.698195  0.123675  0.542120
C    -4.936558  -0.432694  -0.780798
H    -5.482017  0.579858  1.000711
H    -5.614502  0.234406  -1.325324
H    -5.385893  -1.435511  -0.723622
H    -4.002574  -0.488610  -1.352082
