29
Energy: -19155.5250895 eV PBE+vdW (tier 2 basis)
C    -0.927143  3.787370  1.147568
C    -0.465651  2.549192  1.894187
O    0.682347  2.107568  1.790536
H    -0.129453  4.538603  1.178934
H    -1.853659  4.221188  1.545168
H    -1.088696  3.518202  0.094261
N    -1.419136  1.964140  2.687528
C    -1.212963  0.698378  3.393450
C    -2.380996  -0.248651  3.032397
O    -2.293547  -1.045125  2.100865
H    -2.321391  2.422930  2.776081
H    -0.322573  0.251461  2.929713
C    -0.963858  0.874914  4.903629
C    0.286765  1.709603  5.209077
C    0.021148  3.211689  5.087366
O    -0.971168  3.741970  5.589014
N    1.005499  3.927020  4.454902
H    -0.861482  -0.126400  5.348760
H    -1.812137  1.374549  5.402549
H    1.131260  1.395995  4.579070
H    0.581982  1.546394  6.257380
H    1.596754  3.454022  3.775665
H    0.804980  4.909473  4.285719
N    -3.520163  -0.081968  3.778635
C    -4.718109  -0.879807  3.560757
H    -3.475985  0.512997  4.600709
H    -5.601577  -0.234507  3.459003
H    -4.884642  -1.589406  4.385031
H    -4.570403  -1.443792  2.633045
