29
Energy: -19156.5270603 eV PBE+vdW (tier 2 basis)
C    -0.931089  -1.016313  1.290610
C    -0.646383  -0.442817  2.663392
O    0.278955  -0.848210  3.358142
H    -1.990666  -1.009638  1.010058
H    -0.548981  -2.041077  1.267677
H    -0.380866  -0.433458  0.538793
N    -1.470595  0.564844  3.140166
C    -2.496311  1.336686  2.434829
C    -3.749130  0.484145  2.091619
O    -4.453993  0.722494  1.106913
H    -1.110342  0.963537  4.002964
H    -2.854266  2.063994  3.182223
C    -1.997156  2.139765  1.218368
C    -2.851963  3.397247  0.923090
C    -3.107716  3.598996  -0.570875
O    -2.551566  4.474361  -1.228030
N    -4.003942  2.715905  -1.098172
H    -1.977425  1.487507  0.336213
H    -0.959631  2.437654  1.415554
H    -2.352070  4.300025  1.290180
H    -3.823610  3.318597  1.431487
H    -4.364648  1.949772  -0.531392
H    -4.159135  2.729271  -2.098348
N    -4.023896  -0.496857  2.984590
C    -5.158869  -1.390905  2.859151
H    -3.329836  -0.662408  3.706551
H    -5.744801  -1.405639  3.787371
H    -4.836565  -2.416048  2.627137
H    -5.788429  -1.024578  2.041981
