29
Energy: -19155.6365204 eV PBE+vdW (tier 2 basis)
C    -0.888673  2.507157  0.396705
C    -0.730357  1.431849  1.457050
O    0.351847  1.254906  2.039208
H    -0.130636  2.343529  -0.380001
H    -0.679872  3.482656  0.855917
H    -1.882702  2.531818  -0.065920
N    -1.854369  0.710524  1.714588
C    -2.017279  -0.346311  2.703525
C    -3.546124  -0.614903  2.738124
O    -4.318941  0.000318  1.995648
H    -2.741178  0.946988  1.258855
H    -1.529223  -1.269218  2.337146
C    -1.407237  -0.015442  4.084904
C    -1.883835  1.321628  4.684554
C    -0.817804  1.979104  5.563885
O    -0.968889  2.149308  6.773627
N    0.303885  2.380879  4.887192
H    -0.319464  -0.006600  3.950705
H    -1.618620  -0.837828  4.785670
H    -2.780263  1.191559  5.302285
H    -2.138475  2.020256  3.872074
H    0.477571  2.098778  3.919600
H    1.082521  2.717178  5.444910
N    -3.954251  -1.571826  3.611016
C    -5.353994  -1.934569  3.783958
H    -3.260765  -2.003398  4.213955
H    -5.499161  -3.011364  3.621683
H    -5.933472  -1.376158  3.041282
H    -5.709241  -1.668815  4.789855
