29
Energy: -19156.3695769 eV PBE+vdW (tier 2 basis)
C    0.006983  0.242162  -0.020506
C    -0.006867  0.257026  1.497916
O    1.001623  0.464296  2.166425
H    0.804337  -0.429593  -0.359840
H    0.254569  1.249640  -0.378804
H    -0.943424  -0.069115  -0.471914
N    -1.222269  0.012246  2.078770
C    -1.435526  0.093940  3.517254
C    -0.544568  -0.818541  4.389285
O    -0.161310  -0.395915  5.478984
H    -2.033451  -0.119175  1.485653
H    -1.158431  1.101526  3.863704
C    -2.924681  -0.155158  3.810638
C    -3.310834  0.096868  5.264136
C    -4.814339  -0.046722  5.486837
O    -5.633250  -0.060700  4.573251
N    -5.187481  -0.147669  6.798510
H    -3.196633  -1.185008  3.531104
H    -3.526231  0.505835  3.168978
H    -3.020435  1.118396  5.559778
H    -2.761532  -0.570392  5.943510
H    -4.517024  -0.106547  7.554372
H    -6.175061  -0.176463  7.019550
N    -0.283107  -2.106179  4.011660
C    -0.577969  -2.818528  2.779857
H    0.335947  -2.566241  4.672211
H    0.092704  -2.536071  1.954057
H    -1.613638  -2.660303  2.459138
H    -0.454950  -3.891282  2.970234
