29
Energy: -19156.6496292 eV PBE+vdW (tier 2 basis)
C    -0.433992  -0.506746  -0.208716
C    -0.536090  0.007978  1.214926
O    0.179457  0.919480  1.633570
H    -1.178520  -1.273866  -0.453318
H    -0.545208  0.337212  -0.900240
H    0.570713  -0.921798  -0.359763
N    -1.486530  -0.599591  1.985918
C    -1.592041  -0.367986  3.414492
C    -1.853568  -1.735367  4.066101
O    -2.327864  -2.664758  3.407386
H    -1.930081  -1.463899  1.677203
H    -0.629954  0.055279  3.742904
C    -2.724115  0.611558  3.787324
C    -2.502887  2.022451  3.246753
C    -3.436096  3.034047  3.906772
O    -3.847771  2.913233  5.056525
N    -3.768059  4.107339  3.126777
H    -2.821541  0.679059  4.879339
H    -3.676579  0.204753  3.415225
H    -2.605311  2.050302  2.152974
H    -1.470739  2.346700  3.457783
H    -3.370891  4.242095  2.206795
H    -4.295574  4.863080  3.546892
N    -1.571830  -1.873582  5.390008
C    -1.032201  -0.889189  6.313670
H    -1.847363  -2.776467  5.764858
H    -0.493689  -1.410634  7.113362
H    -1.814401  -0.263513  6.769724
H    -0.316146  -0.231723  5.807683
