29
Energy: -19156.4576325 eV PBE+vdW (tier 2 basis)
C    0.385719  0.926099  -0.125505
C    0.321678  1.007656  1.391180
O    0.947212  1.861794  2.014963
H    0.236497  1.930574  -0.537547
H    -0.344135  0.239339  -0.572094
H    1.394017  0.600071  -0.412882
N    -0.483242  0.061925  1.975389
C    -0.656148  -0.280969  3.391814
C    -2.010458  0.154696  4.004549
O    -2.672736  -0.685082  4.634594
H    -0.945248  -0.573490  1.335894
H    -0.746989  -1.375869  3.402309
C    0.535854  0.071982  4.306483
C    0.403928  -0.527514  5.718843
C    0.448543  -2.057199  5.728442
O    1.511484  -2.673680  5.699225
N    -0.770062  -2.672123  5.773779
H    0.660261  1.157073  4.382501
H    1.450242  -0.313044  3.834015
H    -0.506779  -0.160034  6.212640
H    1.263549  -0.190279  6.310485
H    -1.619735  -2.145604  5.559995
H    -0.781468  -3.681763  5.683086
N    -2.458977  1.428510  3.891925
C    -1.876806  2.586057  3.231260
H    -3.366473  1.549933  4.333677
H    -2.139590  3.485211  3.801360
H    -2.254526  2.702742  2.203702
H    -0.785278  2.517253  3.185776
