29
Energy: -19156.325405 eV PBE+vdW (tier 2 basis)
C    -0.728449  0.202661  -0.143150
C    -1.206107  -0.323637  1.197968
O    -1.760711  -1.412918  1.315464
H    -0.151092  -0.584598  -0.641248
H    -0.116739  1.109457  -0.066119
H    -1.602599  0.416921  -0.772437
N    -1.021877  0.538248  2.254685
C    -1.136462  0.075211  3.638397
C    -2.338676  -0.831834  3.983818
O    -2.143422  -1.796998  4.719436
H    -0.278554  1.225330  2.119323
H    -0.274559  -0.569630  3.875368
C    -1.155212  1.253862  4.637555
C    -0.076786  2.342604  4.439427
C    1.303336  1.784784  4.120112
O    1.687120  1.644681  2.957548
N    2.072218  1.426260  5.185329
H    -1.059087  0.806440  5.636940
H    -2.135879  1.750042  4.613530
H    -0.047894  2.976336  5.337782
H    -0.343585  2.994029  3.597881
H    1.729931  1.474768  6.135399
H    2.955496  0.961576  5.010610
N    -3.610786  -0.454398  3.646379
C    -4.061884  0.509930  2.656919
H    -4.285015  -1.158226  3.933468
H    -5.100453  0.780384  2.883288
H    -4.015869  0.110680  1.631897
H    -3.460737  1.423628  2.695053
