29
Energy: -19156.3868342 eV PBE+vdW (tier 2 basis)
C    -0.840194  0.486142  -0.157120
C    -0.464728  0.524204  1.316184
O    0.627894  0.948669  1.686110
H    -0.123145  -0.158104  -0.681269
H    -0.733451  1.496585  -0.570027
H    -1.855624  0.122509  -0.357515
N    -1.435949  0.050485  2.159288
C    -1.423331  -0.127538  3.616225
C    -2.275922  0.934099  4.362587
O    -3.285155  0.546024  4.967686
H    -2.306732  -0.221770  1.718721
H    -2.024659  -1.031364  3.791533
C    -0.042664  -0.401863  4.240085
C    -0.152473  -0.760814  5.731143
C    -0.247820  0.465356  6.641524
O    0.615562  1.338909  6.641645
N    -1.319947  0.487953  7.492811
H    0.647675  0.437655  4.119154
H    0.399630  -1.245951  3.693074
H    0.771772  -1.273902  6.032590
H    -0.982211  -1.459720  5.913042
H    -2.162674  -0.016117  7.236861
H    -1.449727  1.344378  8.021475
N    -1.927499  2.244285  4.352392
C    -0.699255  2.895321  3.915166
H    -2.563604  2.802414  4.916405
H    -0.174791  2.292440  3.168214
H    -0.020211  3.057716  4.765429
H    -0.947540  3.861897  3.458416
