29
Energy: -19156.4719592 eV PBE+vdW (tier 2 basis)
C    -0.608017  -0.945736  0.680548
C    -0.648809  -0.602892  2.155528
O    0.122013  -1.113022  2.962286
H    -0.195121  -1.953801  0.580029
H    0.072593  -0.248628  0.172169
H    -1.581366  -0.891581  0.179489
N    -1.595905  0.307732  2.592930
C    -2.491295  1.167496  1.813033
C    -3.627159  0.376099  1.109062
O    -4.177744  0.804276  0.095860
H    -1.447836  0.561812  3.565718
H    -3.015613  1.774008  2.570765
C    -1.776336  2.145980  0.862055
C    -2.578121  3.418881  0.578866
C    -1.739005  4.438537  -0.187469
O    -0.567618  4.675348  0.089007
N    -2.397908  5.092283  -1.190934
H    -1.548016  1.647892  -0.089754
H    -0.819449  2.433315  1.317723
H    -2.861577  3.900897  1.530092
H    -3.506525  3.174083  0.048326
H    -3.337964  4.842943  -1.466006
H    -1.890921  5.779528  -1.735587
N    -3.985730  -0.775525  1.735869
C    -5.040735  -1.641658  1.249097
H    -3.412264  -1.068036  2.520215
H    -5.787301  -1.828740  2.032647
H    -4.640782  -2.606107  0.904406
H    -5.524255  -1.137607  0.405615
