29
Energy: -19156.3942246 eV PBE+vdW (tier 2 basis)
C    0.012301  -2.226506  0.118177
C    0.208094  -0.785018  0.543956
O    1.192626  -0.135198  0.193435
H    0.247861  -2.896512  0.957708
H    0.708757  -2.433419  -0.698598
H    -1.011915  -2.461652  -0.195375
N    -0.714298  -0.220878  1.397777
C    -2.098201  -0.627647  1.658861
C    -2.212924  -2.066390  2.214013
O    -2.926811  -2.914638  1.681370
H    -0.511274  0.759070  1.591482
H    -2.434629  0.037715  2.472517
C    -3.043618  -0.416643  0.462444
C    -3.353046  1.065314  0.167912
C    -2.107899  1.936836  0.043897
O    -1.689345  2.611269  0.986136
N    -1.467571  1.901668  -1.160321
H    -3.982851  -0.947534  0.663089
H    -2.612534  -0.902281  -0.424950
H    -3.945836  1.493601  0.986168
H    -3.959034  1.126390  -0.748124
H    -1.727217  1.228576  -1.870015
H    -0.527772  2.281717  -1.200624
N    -1.498230  -2.349696  3.341820
C    -0.652314  -1.477020  4.141558
H    -1.608679  -3.312269  3.644721
H    -0.556488  -1.912065  5.142892
H    -1.099829  -0.481576  4.255436
H    0.351263  -1.352877  3.711359
