29
Energy: -19155.4382668 eV PBE+vdW (tier 2 basis)
C    -0.515065  0.548189  0.087888
C    -0.265044  -0.054711  1.457715
O    0.565406  -0.950527  1.638758
H    -1.184027  1.417798  0.104051
H    -0.949513  -0.224789  -0.560340
H    0.448579  0.839367  -0.347920
N    -1.012513  0.478463  2.478253
C    -0.990330  -0.081101  3.827225
C    -2.235223  -0.974244  4.005068
O    -3.366135  -0.480428  3.997846
H    -1.801095  1.080342  2.249040
H    -0.064966  -0.668485  3.880585
C    -0.981803  1.026167  4.889845
C    0.293710  1.873284  4.831783
C    0.170849  3.128653  5.691313
O    -0.793156  3.886780  5.617014
N    1.206687  3.349023  6.564220
H    -1.081647  0.560454  5.883131
H    -1.862680  1.672058  4.761754
H    0.456538  2.214277  3.796399
H    1.172638  1.272907  5.114994
H    2.047638  2.784531  6.551218
H    1.210445  4.220236  7.085873
N    -2.030269  -2.315537  4.151972
C    -0.771080  -3.055586  4.099531
H    -2.894017  -2.841452  4.269786
H    -1.004617  -4.111996  3.922758
H    -0.209547  -2.987277  5.045133
H    -0.139762  -2.705396  3.272109
