29
Energy: -19156.2759482 eV PBE+vdW (tier 2 basis)
C    -1.048314  0.091128  -0.262761
C    -0.804479  -0.519708  1.101800
O    0.280151  -1.020510  1.413923
H    -0.534352  -0.510098  -1.019951
H    -2.111782  0.171358  -0.519390
H    -0.608315  1.097816  -0.278730
N    -1.858536  -0.465782  1.960529
C    -1.791076  -0.878829  3.361425
C    -0.538069  -0.225001  4.016930
O    -0.521674  1.003702  4.064775
H    -2.721102  -0.046426  1.637583
H    -2.581013  -0.299516  3.860525
C    -2.160201  -2.364798  3.582850
C    -1.669617  -3.369734  2.538051
C    -2.491647  -3.320130  1.249477
O    -3.710517  -3.174370  1.240652
N    -1.770659  -3.517958  0.104075
H    -3.258292  -2.429728  3.585276
H    -1.837533  -2.660981  4.590157
H    -1.803457  -4.387630  2.937232
H    -0.603636  -3.248237  2.316725
H    -0.761680  -3.438061  0.103644
H    -2.261083  -3.464755  -0.780837
N    0.429726  -0.950449  4.661092
C    0.945294  -2.281365  4.362823
H    1.108037  -0.308129  5.062626
H    1.884951  -2.404057  4.912125
H    1.147881  -2.399187  3.289886
H    0.266438  -3.075292  4.697601
