29
Energy: -19155.706501 eV PBE+vdW (tier 2 basis)
C    -0.651448  0.943088  -0.619356
C    -0.454493  0.442796  0.803139
O    0.668552  0.230498  1.270231
H    -1.701427  1.122159  -0.882638
H    -0.226067  0.203900  -1.310968
H    -0.083494  1.873859  -0.746173
N    -1.608741  0.283090  1.524244
C    -1.642690  -0.348737  2.839125
C    -3.137229  -0.690103  3.081170
O    -3.892322  -0.839850  2.108663
H    -2.502408  0.191250  1.032636
H    -1.113545  -1.320052  2.788993
C    -0.931647  0.490806  3.914935
C    -1.547834  1.877722  4.166515
C    -2.131898  2.032815  5.568093
O    -2.498407  1.075672  6.260931
N    -2.255321  3.314867  6.013657
H    0.107704  0.597328  3.581378
H    -0.901077  -0.078124  4.855503
H    -2.369208  2.068399  3.453756
H    -0.811259  2.674120  3.984859
H    -1.936204  4.107346  5.469615
H    -2.674550  3.474612  6.924082
N    -3.519108  -0.858959  4.369491
C    -4.898603  -1.171075  4.719034
H    -2.939368  -0.448987  5.111245
H    -5.487217  -1.219714  3.796170
H    -5.306761  -0.390996  5.376709
H    -4.960934  -2.138732  5.237958
