29
Energy: -19155.5472439 eV PBE+vdW (tier 2 basis)
C    -1.691873  1.276419  0.290208
C    -0.940747  0.724993  1.489791
O    0.292820  0.680227  1.527063
H    -2.769872  1.388740  0.461177
H    -1.533883  0.599917  -0.560805
H    -1.261580  2.248707  0.020324
N    -1.729710  0.301144  2.527266
C    -1.188911  -0.450397  3.650358
C    -2.179196  -1.593502  3.933404
O    -3.352683  -1.519002  3.550070
H    -2.732029  0.155164  2.387997
H    -0.206159  -0.837215  3.334617
C    -1.013508  0.412650  4.917854
C    0.017192  1.528447  4.743878
C    0.432371  2.120154  6.089471
O    0.451007  1.467896  7.132222
N    0.794817  3.442852  6.053084
H    -0.694227  -0.211998  5.764080
H    -1.992480  0.836334  5.192964
H    -0.354363  2.311433  4.066710
H    0.928606  1.126153  4.270204
H    0.909160  3.932564  5.172885
H    1.221757  3.837153  6.885884
N    -1.728578  -2.669240  4.640079
C    -0.401345  -2.912331  5.190052
H    -2.466014  -3.335292  4.862317
H    0.373238  -2.501648  4.531720
H    -0.240191  -3.995190  5.255260
H    -0.274622  -2.477132  6.193867
