29
Energy: -19156.4867983 eV PBE+vdW (tier 2 basis)
C    -0.408422  2.130728  0.576298
C    0.013845  0.729424  0.983344
O    1.174871  0.338143  0.821527
H    0.501114  2.703155  0.375660
H    -1.013604  2.116712  -0.341268
H    -0.992037  2.635146  1.357701
N    -0.925371  -0.085801  1.547439
C    -2.366119  0.029776  1.443080
C    -2.986430  -0.335787  2.804451
O    -2.484495  -1.200619  3.515585
H    -0.577182  -0.980324  1.889195
H    -2.597932  1.073032  1.190704
C    -2.967198  -0.902399  0.350978
C    -2.134851  -0.990034  -0.945773
C    -1.235547  -2.231679  -0.969135
O    -1.731920  -3.352343  -1.052985
N    0.112758  -2.025955  -0.926996
H    -3.982216  -0.544362  0.127839
H    -3.081736  -1.916644  0.760096
H    -1.566904  -0.067795  -1.128869
H    -2.817837  -1.119452  -1.795326
H    0.530089  -1.158704  -0.592545
H    0.686142  -2.860099  -0.858734
N    -4.135682  0.329913  3.110663
C    -4.914323  0.047411  4.303481
H    -4.468824  1.037302  2.466924
H    -5.926022  -0.294500  4.045417
H    -4.989252  0.933959  4.947752
H    -4.397704  -0.747355  4.851410
