29
Energy: -19155.9831575 eV PBE+vdW (tier 2 basis)
C    -0.134983  -0.851718  0.326946
C    0.011539  -0.496888  1.794345
O    1.044992  -0.736071  2.413942
H    0.820145  -1.258737  -0.014263
H    -0.383606  0.027780  -0.281537
H    -0.917198  -1.608721  0.179490
N    -1.049250  0.102241  2.427589
C    -2.378374  0.482879  1.949306
C    -3.167982  -0.765036  1.455448
O    -3.404504  -1.648330  2.275400
H    -0.872192  0.247144  3.416586
H    -2.925585  0.708389  2.876245
C    -2.378298  1.795520  1.142868
C    -3.752308  2.468374  1.099321
C    -4.143574  3.066556  2.456245
O    -3.316723  3.408709  3.293951
N    -5.486034  3.221127  2.652486
H    -1.980123  1.664582  0.130494
H    -1.691766  2.474721  1.665480
H    -4.540933  1.780239  0.757609
H    -3.735067  3.302061  0.379498
H    -6.172710  2.900672  1.983656
H    -5.803655  3.636398  3.519924
N    -3.658981  -0.894432  0.176633
C    -3.406306  -0.188984  -1.072857
H    -4.167878  -1.770430  0.096447
H    -2.337003  -0.105232  -1.303082
H    -3.851595  0.814553  -1.093698
H    -3.870114  -0.769471  -1.877634
