29
Energy: -19156.3210122 eV PBE+vdW (tier 2 basis)
C    -1.905124  -1.265434  0.197938
C    -1.688931  -0.734131  1.602057
O    -0.913484  -1.293708  2.375178
H    -2.105426  -0.499165  -0.557926
H    -2.758763  -1.958065  0.195082
H    -1.012990  -1.838428  -0.071770
N    -2.400100  0.363326  2.036783
C    -3.277836  1.319794  1.355023
C    -4.164543  0.676302  0.267387
O    -4.117491  1.030952  -0.909426
H    -2.095149  0.644767  2.966412
H    -3.989278  1.653961  2.130902
C    -2.568367  2.594644  0.854112
C    -1.268143  2.380775  0.078751
C    -0.096298  2.048157  1.003658
O    0.041081  2.576277  2.103292
N    0.817908  1.165756  0.500724
H    -2.329445  3.217037  1.728090
H    -3.283832  3.148439  0.233382
H    -1.003165  3.325742  -0.420480
H    -1.389091  1.638263  -0.720868
H    0.607757  0.607009  -0.315620
H    1.538359  0.830105  1.130094
N    -5.050195  -0.277689  0.681820
C    -5.253818  -0.827094  2.012258
H    -5.594261  -0.667321  -0.081864
H    -4.514788  -1.599593  2.271634
H    -6.254711  -1.271027  2.056124
H    -5.206129  -0.041794  2.776766
