29
Energy: -19156.491408 eV PBE+vdW (tier 2 basis)
C    0.373382  0.828786  1.031237
C    -0.224119  -0.448774  1.584649
O    0.433713  -1.472611  1.753302
H    1.396562  0.614898  0.712624
H    0.393318  1.619707  1.794306
H    -0.203178  1.217967  0.181020
N    -1.565327  -0.426749  1.896239
C    -2.460042  0.718085  1.918131
C    -2.117394  1.817359  2.954022
O    -2.196082  3.001309  2.606410
H    -1.903447  -1.303137  2.284783
H    -2.374850  1.262901  0.966142
C    -3.911124  0.209378  2.039515
C    -4.956021  1.305957  2.265658
C    -5.064874  1.704351  3.739454
O    -5.144697  0.861373  4.630527
N    -5.133022  3.046077  3.982801
H    -3.991896  -0.507455  2.871022
H    -4.137969  -0.342566  1.116874
H    -5.946620  0.912545  1.993381
H    -4.769011  2.177366  1.623599
H    -4.736272  3.690797  3.308456
H    -5.119148  3.332109  4.955950
N    -1.728442  1.478603  4.212334
C    -1.779017  0.187643  4.891541
H    -1.550739  2.296814  4.786807
H    -1.529495  0.356519  5.944049
H    -1.049454  -0.521095  4.481011
H    -2.787274  -0.246893  4.859759
