29
Energy: -19156.5461066 eV PBE+vdW (tier 2 basis)
C    0.151872  -0.358760  0.314155
C    -0.123800  0.620372  1.443509
O    0.566955  1.623608  1.608812
H    0.813006  0.133684  -0.403871
H    -0.760587  -0.692258  -0.198470
H    0.662683  -1.253364  0.697177
N    -1.170034  0.341000  2.283105
C    -2.093225  -0.774829  2.261332
C    -3.343172  -0.325177  3.052692
O    -3.313959  0.648397  3.804142
H    -1.382140  1.046597  2.990181
H    -2.403777  -0.986853  1.224624
C    -1.513375  -2.078431  2.861400
C    -1.077410  -1.944871  4.319307
C    -0.729192  -3.302976  4.923041
O    -1.335448  -4.330140  4.634359
N    0.292908  -3.290920  5.828936
H    -0.658493  -2.394738  2.246876
H    -2.252793  -2.888897  2.788534
H    -1.899135  -1.531539  4.927560
H    -0.240296  -1.238923  4.412323
H    0.781511  -2.442242  6.079460
H    0.523531  -4.151349  6.310906
N    -4.441832  -1.105070  2.874810
C    -5.681436  -0.901500  3.602984
H    -4.370650  -1.902540  2.253944
H    -6.527609  -0.795016  2.911475
H    -5.577046  0.019956  4.184431
H    -5.882889  -1.736069  4.289214
