29
Energy: -19156.5492258 eV PBE+vdW (tier 2 basis)
C    -0.084106  -1.020926  0.201028
C    -0.035925  -0.423688  1.592705
O    1.014768  -0.261174  2.207246
H    -0.467841  -0.286434  -0.519676
H    -0.735054  -1.906170  0.159878
H    0.932806  -1.313309  -0.072818
N    -1.236301  -0.080453  2.180439
C    -2.555891  -0.001461  1.565548
C    -2.743340  1.406950  0.938353
O    -2.237286  1.654667  -0.158191
H    -1.112789  0.407106  3.065570
H    -2.562631  -0.686408  0.707753
C    -3.612140  -0.459203  2.581360
C    -5.058412  -0.462469  2.051676
C    -5.989037  0.428138  2.870211
O    -5.597669  1.455409  3.428527
N    -7.289834  0.038380  2.922738
H    -3.561689  0.179745  3.476042
H    -3.330892  -1.467585  2.911569
H    -5.457756  -1.484015  1.995535
H    -5.094681  -0.067184  1.022345
H    -7.956689  0.628942  3.405198
H    -7.617782  -0.806678  2.475660
N    -3.395881  2.333165  1.683692
C    -3.571638  3.689673  1.192958
H    -3.970579  2.043988  2.480017
H    -4.047487  4.285684  1.978470
H    -4.197469  3.719428  0.288273
H    -2.599966  4.131127  0.939113
