29
Energy: -19156.442027 eV PBE+vdW (tier 2 basis)
C    -0.459239  0.715058  -0.446353
C    0.027455  -0.354876  0.517203
O    1.219004  -0.646843  0.615586
H    0.400922  1.067559  -1.021022
H    -0.905944  1.566114  0.088301
H    -1.222350  0.330714  -1.137762
N    -0.919507  -0.982341  1.284061
C    -2.326289  -0.648372  1.361537
C    -2.726203  0.653503  2.101909
O    -3.814782  1.163737  1.827735
H    -0.573979  -1.674203  1.957173
H    -2.698803  -0.460017  0.344245
C    -3.183260  -1.818327  1.900124
C    -3.193434  -2.075540  3.416657
C    -2.010736  -2.862445  3.965934
O    -0.871434  -2.797254  3.500110
N    -2.284118  -3.642061  5.048796
H    -2.888878  -2.730780  1.362284
H    -4.216278  -1.590649  1.608969
H    -4.126217  -2.596056  3.678214
H    -3.228791  -1.118950  3.964771
H    -3.212487  -3.721962  5.439789
H    -1.523419  -4.152045  5.481831
N    -1.913966  1.217283  3.043817
C    -0.617655  0.821389  3.590094
H    -2.311970  2.083742  3.394697
H    -0.468284  1.379574  4.521742
H    0.216495  1.051524  2.913230
H    -0.579064  -0.246023  3.828840
