29
Energy: -19156.352605 eV PBE+vdW (tier 2 basis)
C    -0.988622  0.183818  -0.062320
C    -0.680438  -0.148429  1.386692
O    0.271796  -0.863681  1.703097
H    -0.056089  0.178842  -0.634608
H    -1.492680  1.150669  -0.187164
H    -1.647275  -0.596629  -0.469647
N    -1.550311  0.404564  2.287982
C    -1.755024  0.048010  3.695673
C    -1.190636  1.008931  4.772218
O    -1.868013  1.174432  5.790053
H    -2.344696  0.879568  1.875375
H    -2.834704  0.173593  3.853450
C    -1.424005  -1.409420  4.072748
C    -2.187553  -2.458766  3.238993
C    -3.681863  -2.173083  3.160592
O    -4.188792  -1.544451  2.232949
N    -4.426150  -2.633941  4.210677
H    -1.686097  -1.506984  5.136146
H    -0.349954  -1.601752  3.972582
H    -2.002374  -3.452797  3.671958
H    -1.807433  -2.474475  2.211963
H    -4.002202  -3.072110  5.017292
H    -5.404097  -2.374288  4.259082
N    0.005784  1.639387  4.623354
C    1.019385  1.541769  3.584427
H    0.201431  2.250828  5.410647
H    1.994119  1.770581  4.031371
H    0.840897  2.252227  2.762461
H    1.067796  0.531640  3.163719
