29
Energy: -19155.8403537 eV PBE+vdW (tier 2 basis)
C    -0.429347  2.716224  0.168293
C    -1.032038  1.642689  1.050571
O    -1.836516  0.803531  0.606571
H    0.180912  2.229097  -0.604214
H    0.193884  3.431271  0.718940
H    -1.239225  3.251328  -0.343492
N    -0.630627  1.655327  2.350142
C    -0.989681  0.588893  3.297694
C    -2.416410  0.812242  3.883160
O    -2.636408  1.174400  5.049060
H    0.040773  2.360762  2.665373
H    -1.042999  -0.336295  2.700189
C    0.120020  0.400812  4.346680
C    0.270013  1.458398  5.466656
C    0.175848  2.893026  4.961738
O    0.994231  3.371041  4.161689
N    -0.881141  3.603258  5.449652
H    1.065410  0.322049  3.789128
H    -0.039982  -0.572608  4.832141
H    1.270385  1.347446  5.910682
H    -0.475688  1.280554  6.248243
H    -1.688940  3.070083  5.772734
H    -1.053996  4.509798  5.021840
N    -3.396952  0.552889  2.984344
C    -4.798733  0.787265  3.294075
H    -3.095225  0.421592  2.007823
H    -5.024132  0.399929  4.295328
H    -5.417208  0.266719  2.554424
H    -5.050228  1.860278  3.279539
