29
Energy: -19156.6549836 eV PBE+vdW (tier 2 basis)
C    -1.141391  1.309376  -0.016894
C    -0.485320  0.680566  1.205069
O    0.720159  0.794971  1.412453
H    -0.346094  1.731051  -0.636950
H    -1.825077  2.119413  0.275629
H    -1.718213  0.589944  -0.612714
N    -1.286857  -0.024240  2.067296
C    -2.729793  -0.125566  2.065743
C    -3.278924  0.288178  3.447350
O    -2.577131  0.269957  4.456963
H    -0.842246  -0.262348  2.954367
H    -3.131147  0.581985  1.331165
C    -3.234689  -1.553609  1.714091
C    -3.501513  -1.746943  0.225601
C    -4.646500  -0.864206  -0.273904
O    -5.378431  -0.218496  0.478925
N    -4.813174  -0.836584  -1.625103
H    -4.159536  -1.766636  2.266239
H    -2.481967  -2.276084  2.055788
H    -3.774381  -2.794929  0.020370
H    -2.595278  -1.550430  -0.369188
H    -4.239543  -1.386792  -2.250215
H    -5.583569  -0.303545  -2.010185
N    -4.592512  0.635087  3.416323
C    -5.348397  0.948147  4.613281
H    -5.081105  0.525084  2.527319
H    -5.893430  1.893629  4.491921
H    -4.640560  1.046241  5.443067
H    -6.069886  0.153883  4.856781
