29
Energy: -19155.5863255 eV PBE+vdW (tier 2 basis)
C    -2.239510  -1.896765  -0.839936
C    -1.441164  -1.140891  0.209471
O    -0.665114  -0.226720  -0.080304
H    -1.554762  -2.558045  -1.388983
H    -2.650355  -1.177710  -1.558658
H    -3.053796  -2.502455  -0.421778
N    -1.649489  -1.549165  1.500168
C    -0.830652  -1.083780  2.625380
C    -0.762888  -2.223082  3.664582
O    0.297675  -2.783011  3.942854
H    -2.281033  -2.326248  1.673246
H    0.188122  -0.954338  2.241124
C    -1.302270  0.264131  3.270762
C    -2.410835  0.993780  2.514630
C    -3.737697  0.245580  2.513226
O    -4.037976  -0.621431  3.345869
N    -4.614630  0.618174  1.537744
H    -0.430432  0.928273  3.334700
H    -1.637939  0.084455  4.302119
H    -2.096634  1.218196  1.484322
H    -2.597420  1.962880  3.008211
H    -4.389070  1.339470  0.862799
H    -5.543572  0.209346  1.536468
N    -1.978620  -2.560918  4.194116
C    -2.108175  -3.596717  5.206801
H    -2.769256  -1.923186  4.031609
H    -1.210797  -4.224959  5.167307
H    -2.996885  -4.210864  5.009023
H    -2.189825  -3.170000  6.219129
