29
Energy: -19156.4689531 eV PBE+vdW (tier 2 basis)
C    0.769869  -1.463247  0.895724
C    0.184933  -0.986692  2.209636
O    0.291609  -1.656606  3.239523
H    1.834180  -1.683101  1.041044
H    0.659890  -0.745855  0.073247
H    0.276583  -2.402833  0.616180
N    -0.451969  0.221559  2.164583
C    -1.220466  0.777657  3.282487
C    -2.620230  1.222104  2.809286
O    -3.620308  0.665611  3.249189
H    -0.540302  0.658977  1.255548
H    -1.438183  -0.067297  3.946710
C    -0.461555  1.854647  4.085862
C    0.696632  1.296585  4.932508
C    0.196601  0.550607  6.172672
O    -0.130943  1.156930  7.191150
N    0.140329  -0.803729  6.052580
H    -1.176500  2.361782  4.751832
H    -0.062502  2.618564  3.405344
H    1.295159  2.137257  5.304716
H    1.351066  0.663203  4.317610
H    0.255231  -1.255238  5.142549
H    -0.279069  -1.322641  6.815398
N    -2.737693  2.209322  1.857669
C    -1.776366  3.204974  1.406820
H    -3.715012  2.411629  1.663349
H    -2.104724  3.594139  0.435795
H    -0.778497  2.775337  1.263018
H    -1.679811  4.051355  2.104967
