29
Energy: -19156.2376042 eV PBE+vdW (tier 2 basis)
C    0.466134  0.257671  0.728651
C    -0.143014  0.104808  2.100857
O    0.541908  -0.094970  3.103601
H    1.485928  -0.134330  0.779186
H    0.522185  1.318938  0.447631
H    -0.105603  -0.283817  -0.031785
N    -1.514108  0.230059  2.269224
C    -2.627533  0.457701  1.357297
C    -2.947337  -0.766863  0.465086
O    -2.078581  -1.518285  0.035882
H    -1.769971  0.012198  3.227333
H    -3.487661  0.613439  2.026242
C    -2.519866  1.734997  0.494603
C    -2.301404  3.016933  1.323942
C    -0.827871  3.403725  1.442144
O    -0.184633  3.753558  0.456583
N    -0.286183  3.364292  2.696258
H    -3.453920  1.826149  -0.077330
H    -1.723131  1.635967  -0.253759
H    -2.780010  2.926722  2.310434
H    -2.779104  3.859916  0.806920
H    0.720771  3.472083  2.760335
H    -0.728324  2.816540  3.423877
N    -4.266202  -0.955915  0.146758
C    -5.436307  -0.252805  0.647277
H    -4.415589  -1.760661  -0.453971
H    -6.324251  -0.681331  0.170962
H    -5.418474  0.818613  0.400904
H    -5.558866  -0.361943  1.735797
