29
Energy: -19156.6184244 eV PBE+vdW (tier 2 basis)
C    0.917634  0.441587  0.823879
C    0.315335  -0.675769  1.650289
O    0.979330  -1.638577  2.037551
H    0.211791  1.248392  0.593167
H    1.770464  0.859782  1.372201
H    1.304837  0.021295  -0.112771
N    -1.016063  -0.534822  1.933076
C    -1.748016  -1.484662  2.760907
C    -2.788022  -2.186518  1.865275
O    -3.893640  -1.665520  1.651857
H    -1.525053  0.261022  1.559163
H    -0.983160  -2.195546  3.092407
C    -2.437896  -0.856958  4.010464
C    -2.222096  0.641157  4.242435
C    -2.864796  1.659387  3.295337
O    -2.646796  2.859911  3.438334
N    -3.658670  1.173602  2.294773
H    -2.062157  -1.388511  4.894971
H    -3.513941  -1.070199  3.961054
H    -1.152099  0.890873  4.272699
H    -2.606118  0.898851  5.240639
H    -3.905543  0.183415  2.174976
H    -4.130505  1.862356  1.719737
N    -2.445697  -3.359334  1.282075
C    -1.222295  -4.139696  1.428041
H    -3.184597  -3.744291  0.699778
H    -1.043207  -4.686602  0.495002
H    -1.299648  -4.871116  2.246933
H    -0.357148  -3.491133  1.607312
