29
Energy: -19156.3809068 eV PBE+vdW (tier 2 basis)
C    0.039922  0.499006  0.573255
C    -0.163675  -0.058064  1.961843
O    0.755834  -0.159843  2.768315
H    1.020012  0.982455  0.545270
H    -0.734858  1.225137  0.291565
H    0.023550  -0.325217  -0.153358
N    -1.428853  -0.498131  2.329465
C    -2.730395  -0.205067  1.721125
C    -3.872801  -0.650127  2.653538
O    -4.964884  -0.091980  2.615770
H    -1.447219  -0.645353  3.336154
H    -2.878197  0.882215  1.612506
C    -2.971891  -0.831034  0.324327
C    -3.017709  -2.363003  0.257224
C    -1.661968  -3.019769  0.497208
O    -0.651809  -2.683704  -0.108155
N    -1.645842  -4.011508  1.448693
H    -2.209513  -0.470528  -0.375802
H    -3.935195  -0.433406  -0.023526
H    -3.315231  -2.648273  -0.763108
H    -3.787215  -2.763625  0.932563
H    -2.507649  -4.442861  1.757911
H    -0.792478  -4.553492  1.535016
N    -3.596438  -1.705973  3.477819
C    -4.599088  -2.277382  4.357707
H    -2.721787  -2.204363  3.342698
H    -4.145462  -2.562438  5.314614
H    -5.083046  -3.161615  3.914072
H    -5.370325  -1.519757  4.530322
