29
Energy: -19156.3888398 eV PBE+vdW (tier 2 basis)
C    0.613143  -0.640007  0.176937
C    0.505605  0.178162  1.444364
O    1.490940  0.636836  2.017383
H    1.663689  -0.911830  0.044969
H    0.295008  -0.036401  -0.684480
H    0.004048  -1.551673  0.211431
N    -0.751028  0.446087  1.950537
C    -2.071225  0.010665  1.506114
C    -2.189764  -1.539573  1.512820
O    -1.842967  -2.179013  2.499743
H    -0.697784  0.888343  2.861708
H    -2.744074  0.303160  2.327566
C    -2.573775  0.741883  0.243384
C    -2.375894  2.262220  0.312762
C    -0.978572  2.673869  -0.152729
O    -0.494286  2.221528  -1.186757
N    -0.339305  3.611572  0.605112
H    -3.644388  0.521079  0.121119
H    -2.055708  0.392891  -0.663548
H    -2.603247  2.648796  1.317479
H    -3.077707  2.749281  -0.380778
H    0.634541  3.790592  0.384012
H    -0.632050  3.784547  1.557849
N    -2.728618  -2.110600  0.397868
C    -2.905150  -3.545379  0.268348
H    -2.912553  -1.523647  -0.406111
H    -3.924344  -3.783282  -0.063094
H    -2.729772  -3.991274  1.252757
H    -2.188670  -3.976977  -0.445821
