29
Energy: -19156.5422364 eV PBE+vdW (tier 2 basis)
C    -0.094735  -0.405766  -0.352603
C    0.146104  0.305895  0.964598
O    1.041109  1.135999  1.093304
H    -0.768170  0.207989  -0.966991
H    -0.539151  -1.402572  -0.255805
H    0.862947  -0.477103  -0.877170
N    -0.664304  -0.009387  2.039929
C    -1.904259  -0.788760  2.067685
C    -1.679313  -2.301183  1.830378
O    -2.562552  -3.021209  1.363497
H    -0.517918  0.624464  2.821498
H    -2.242671  -0.713602  3.112369
C    -3.037599  -0.206431  1.196584
C    -4.443701  -0.576174  1.669274
C    -4.789858  -0.014313  3.046062
O    -4.076704  0.783454  3.651797
N    -5.973713  -0.457546  3.564452
H    -2.923904  -0.538818  0.156702
H    -2.926895  0.885765  1.215807
H    -4.566012  -1.668893  1.668344
H    -5.182706  -0.179651  0.954503
H    -6.547460  -1.142136  3.090955
H    -6.263066  -0.117787  4.473206
N    -0.466156  -2.762645  2.235646
C    -0.078547  -4.154904  2.136274
H    0.207099  -2.069065  2.544495
H    0.215608  -4.553469  3.116913
H    0.757897  -4.288747  1.435325
H    -0.943630  -4.716022  1.767052
