29
Energy: -19156.2833784 eV PBE+vdW (tier 2 basis)
C    -0.213179  -1.237295  -0.610050
C    -0.207359  -0.738378  0.820053
O    0.651744  -1.077007  1.632654
H    0.819474  -1.361936  -0.950106
H    -0.750236  -0.574920  -1.300894
H    -0.702171  -2.221981  -0.619355
N    -1.255607  0.073478  1.151769
C    -1.542065  0.536521  2.509123
C    -0.475622  1.575951  2.963371
O    -0.516349  2.684305  2.425290
H    -1.890535  0.356680  0.417421
H    -2.418089  1.192415  2.396810
C    -1.953944  -0.611663  3.446903
C    -3.346249  -1.167021  3.108224
C    -3.388377  -1.956485  1.801101
O    -2.641294  -2.899172  1.572045
N    -4.322797  -1.530956  0.887345
H    -1.976728  -0.236265  4.479731
H    -1.225444  -1.429295  3.406244
H    -4.089922  -0.354455  3.106887
H    -3.646377  -1.874802  3.895337
H    -5.047221  -0.873374  1.144369
H    -4.480033  -2.115520  0.073847
N    0.420164  1.321465  3.958139
C    0.858217  0.067239  4.560441
H    0.997045  2.138883  4.134991
H    1.874697  0.215535  4.942013
H    0.890218  -0.727980  3.808158
H    0.222781  -0.234456  5.406148
