29
Energy: -19155.5790068 eV PBE+vdW (tier 2 basis)
C    -5.076257  -0.224616  1.698258
C    -3.588012  -0.321218  1.434121
O    -3.106514  -0.379604  0.306232
H    -5.347585  0.841742  1.721309
H    -5.371373  -0.677949  2.654136
H    -5.617742  -0.704162  0.876111
N    -2.793727  -0.333193  2.575727
C    -1.357921  -0.072736  2.490375
C    -0.472527  -1.278325  2.881920
O    0.739698  -1.138315  3.059699
H    -3.253339  -0.092698  3.453423
H    -1.164292  0.099097  1.416818
C    -0.925128  1.166691  3.292647
C    -1.655560  2.456771  2.887690
C    -3.125222  2.570967  3.284443
O    -3.998605  2.958678  2.515249
N    -3.437218  2.177611  4.580471
H    0.154481  1.283925  3.133087
H    -1.038268  0.963828  4.371921
H    -1.622342  2.601604  1.799577
H    -1.136272  3.318866  3.339980
H    -2.704990  2.164254  5.285656
H    -4.355032  2.476014  4.903375
N    -1.130120  -2.465468  2.988109
C    -0.445296  -3.720605  3.239619
H    -2.123615  -2.454264  2.771252
H    -0.897407  -4.250252  4.090043
H    0.599050  -3.483773  3.474556
H    -0.470867  -4.374870  2.355195
