29
Energy: -19156.347177 eV PBE+vdW (tier 2 basis)
C    1.495410  0.469528  0.628730
C    0.865532  0.608759  2.002773
O    1.519875  0.898559  3.000560
H    2.034174  1.395090  0.392924
H    0.774907  0.261710  -0.172236
H    2.234457  -0.340896  0.662679
N    -0.489570  0.398581  2.051909
C    -1.207482  0.350829  3.328136
C    -2.458424  -0.538142  3.204072
O    -2.559927  -1.558782  3.882788
H    -0.946200  0.024552  1.228829
H    -0.566545  -0.181769  4.044172
C    -1.497800  1.757823  3.887649
C    -2.281859  1.731135  5.204827
C    -3.059980  3.026671  5.413576
O    -3.731231  3.536935  4.520065
N    -2.988651  3.565431  6.665217
H    -2.060987  2.352248  3.159961
H    -0.530760  2.257045  4.032757
H    -1.622691  1.506470  6.055164
H    -3.041022  0.931708  5.185554
H    -2.424513  3.155982  7.396787
H    -3.517101  4.406597  6.863122
N    -3.442423  -0.194641  2.311425
C    -3.690782  1.066449  1.617282
H    -4.223565  -0.843475  2.360296
H    -4.385112  0.871462  0.791715
H    -2.769660  1.472173  1.184348
H    -4.127363  1.831845  2.276545
