29
Energy: -19156.3905178 eV PBE+vdW (tier 2 basis)
C    -0.539053  0.147908  0.069054
C    -0.440930  0.160557  1.583704
O    0.577782  0.502026  2.172183
H    0.298256  -0.434018  -0.333866
H    -0.428502  1.177388  -0.294809
H    -1.482913  -0.259800  -0.314085
N    -1.593813  -0.210066  2.246869
C    -1.609216  -0.410729  3.698187
C    -2.866156  -1.157272  4.160954
O    -2.848843  -1.846097  5.175793
H    -2.260810  -0.750535  1.706471
H    -0.761655  -1.050444  3.987255
C    -1.458409  0.911888  4.489494
C    -2.618399  1.904095  4.312747
C    -2.304477  3.260505  4.937760
O    -1.947621  4.227978  4.276603
N    -2.445992  3.320189  6.299748
H    -0.517319  1.376858  4.171004
H    -1.344542  0.632329  5.546604
H    -3.546032  1.499947  4.748351
H    -2.792438  2.095964  3.246307
H    -2.652916  2.502259  6.857354
H    -2.153047  4.166039  6.773437
N    -3.991026  -0.993763  3.393700
C    -5.268019  -1.556065  3.802539
H    -4.003793  -0.227111  2.729100
H    -5.903587  -1.704168  2.922216
H    -5.794536  -0.910418  4.522438
H    -5.084157  -2.520727  4.286070
