29
Energy: -19156.1663174 eV PBE+vdW (tier 2 basis)
C    0.236995  -0.281953  -0.047226
C    -0.030788  -0.560831  1.423834
O    0.744538  -1.248493  2.089229
H    0.287280  -1.240350  -0.578726
H    1.221636  0.193050  -0.138736
H    -0.512895  0.354197  -0.533298
N    -1.166741  0.019496  1.912816
C    -1.825789  -0.065547  3.229280
C    -1.743288  1.242057  4.061911
O    -2.789148  1.705049  4.513199
H    -1.687607  0.573444  1.242791
H    -2.895825  -0.070866  2.982417
C    -1.630509  -1.363703  4.047649
C    -0.373253  -1.584166  4.891962
C    -0.364311  -0.818413  6.211803
O    -1.379417  -0.539376  6.837346
N    0.886680  -0.484573  6.669039
H    -1.742196  -2.202260  3.346915
H    -2.490137  -1.398608  4.732399
H    0.536714  -1.416123  4.305845
H    -0.352539  -2.649958  5.175310
H    1.720988  -0.828317  6.211919
H    0.965237  -0.130379  7.615045
N    -0.549706  1.864249  4.284299
C    0.791215  1.570048  3.815421
H    -0.671285  2.704508  4.842799
H    1.070251  2.194870  2.951460
H    0.893119  0.522380  3.521413
H    1.505644  1.756407  4.627498
