29
Energy: -19156.5056979 eV PBE+vdW (tier 2 basis)
C    0.358674  0.473177  0.492817
C    -0.177121  0.206293  1.884793
O    0.524908  0.359635  2.881119
H    1.443115  0.334383  0.528722
H    0.162790  1.520581  0.219765
H    -0.063103  -0.186762  -0.271087
N    -1.505266  -0.146786  2.044771
C    -2.495328  -0.596047  1.080934
C    -2.128148  -1.935314  0.375542
O    -0.999822  -2.417984  0.397718
H    -1.693838  -0.376818  3.015735
H    -3.380088  -0.841232  1.686446
C    -2.929301  0.501831  0.073200
C    -4.095789  1.343095  0.581802
C    -5.405673  0.556727  0.639655
O    -5.529326  -0.585984  0.192529
N    -6.451666  1.208720  1.216517
H    -3.211406  0.038731  -0.880674
H    -2.077674  1.157508  -0.137306
H    -4.257668  2.211728  -0.076952
H    -3.870794  1.756251  1.578634
H    -7.352518  0.747460  1.255017
H    -6.368640  2.150434  1.575210
N    -3.200809  -2.503489  -0.239070
C    -3.108659  -3.744102  -0.982106
H    -4.092645  -2.005941  -0.196493
H    -3.315741  -3.589195  -2.051253
H    -3.816622  -4.488893  -0.592816
H    -2.089291  -4.128909  -0.870887
