29
Energy: -19155.9437901 eV PBE+vdW (tier 2 basis)
C    0.669880  -0.276022  0.292355
C    0.350597  -0.165098  1.763558
O    1.245256  -0.031061  2.595008
H    1.403505  -1.082858  0.181558
H    1.154140  0.654397  -0.031055
H    -0.176481  -0.497685  -0.356824
N    -0.958416  -0.196072  2.225789
C    -2.273088  -0.336565  1.620762
C    -2.445438  -1.634681  0.800329
O    -1.518131  -2.317901  0.396792
H    -0.957262  -0.119853  3.238650
H    -2.941351  -0.479805  2.485346
C    -2.821612  0.958869  0.941837
C    -2.023716  1.638555  -0.173247
C    -1.947114  1.042007  -1.579479
O    -1.133936  1.474442  -2.388506
N    -2.867007  0.085600  -1.916748
H    -2.915872  1.691588  1.756780
H    -3.851281  0.774063  0.599964
H    -0.990115  1.830181  0.137291
H    -2.459913  2.638853  -0.325307
H    -3.392077  -0.438133  -1.223634
H    -2.745554  -0.344068  -2.827161
N    -3.755493  -1.985947  0.493321
C    -4.945630  -1.700522  1.293935
H    -3.763059  -2.890576  0.025883
H    -4.887556  -2.126443  2.308440
H    -5.812582  -2.139740  0.788522
H    -5.131683  -0.623749  1.376516
