29
Energy: -19156.6296551 eV PBE+vdW (tier 2 basis)
C    0.255535  0.203633  2.152134
C    -0.664551  1.395870  2.318886
O    -0.263961  2.492924  2.702344
H    0.132473  -0.277705  1.172700
H    0.060523  -0.558583  2.919596
H    1.284489  0.556137  2.260659
N    -1.992780  1.219019  1.982843
C    -2.718709  -0.045892  1.896258
C    -3.264004  -0.365929  0.487108
O    -4.013461  -1.322351  0.307564
H    -2.545846  2.054062  2.169170
H    -2.009188  -0.853647  2.122238
C    -3.854014  -0.130523  2.935428
C    -3.423455  0.263611  4.354206
C    -2.192537  -0.494679  4.844664
O    -2.050519  -1.702585  4.676062
N    -1.266156  0.263846  5.504879
H    -4.231776  -1.158658  2.918528
H    -4.689975  0.515251  2.624531
H    -4.241781  0.023967  5.050187
H    -3.260103  1.348165  4.433833
H    -1.285060  1.275146  5.476213
H    -0.413794  -0.189437  5.813266
N    -2.832997  0.465029  -0.500501
C    -3.207781  0.291195  -1.889230
H    -2.209877  1.217807  -0.227855
H    -2.328910  0.089444  -2.517666
H    -3.722569  1.181456  -2.276208
H    -3.887406  -0.566362  -1.943238
