29
Energy: -19156.5567725 eV PBE+vdW (tier 2 basis)
C    -0.701631  0.299183  0.022983
C    -0.583604  0.225783  1.534520
O    0.448440  0.523921  2.125862
H    -0.219224  1.218812  -0.325526
H    -1.734285  0.265908  -0.346140
H    -0.149016  -0.546156  -0.409124
N    -1.728068  -0.181013  2.185677
C    -1.818249  -0.537569  3.607613
C    -1.170759  0.514871  4.542737
O    -0.581031  0.184823  5.573028
H    -2.498947  -0.487043  1.602829
H    -2.894951  -0.481631  3.843209
C    -1.369260  -1.966357  3.940258
C    0.126633  -2.289319  3.712306
C    0.721992  -3.126413  4.843502
O    1.091469  -4.289007  4.694334
N    0.807743  -2.459799  6.030593
H    -1.992435  -2.660722  3.358057
H    -1.632570  -2.135013  4.993193
H    0.703808  -1.359682  3.627093
H    0.271265  -2.853321  2.785178
H    0.443663  -1.512153  6.123483
H    1.147435  -2.960508  6.841562
N    -1.420329  1.808006  4.215809
C    -0.797002  2.909106  4.927961
H    -1.771199  1.981692  3.280728
H    -1.414490  3.808839  4.826041
H    0.214399  3.117822  4.546865
H    -0.718569  2.643291  5.986899
