29
Energy: -19156.5388893 eV PBE+vdW (tier 2 basis)
C    -0.692457  0.544892  1.040303
C    -0.822534  0.678160  2.539113
O    -0.509504  1.702897  3.138872
H    -0.498006  -0.477968  0.698118
H    0.113007  1.207041  0.708698
H    -1.633950  0.888747  0.588729
N    -1.314278  -0.399035  3.262402
C    -1.880303  -1.675937  2.820351
C    -0.844950  -2.647814  2.191269
O    -1.205300  -3.592678  1.494004
H    -1.432009  -0.157638  4.241867
H    -2.169650  -2.181845  3.757635
C    -3.150948  -1.586930  1.958642
C    -4.292248  -0.820810  2.636071
C    -4.137904  0.695045  2.521851
O    -3.878929  1.239492  1.452713
N    -4.344772  1.409183  3.666699
H    -3.458715  -2.616577  1.742152
H    -2.936273  -1.118313  0.989442
H    -4.414081  -1.137944  3.684104
H    -5.234908  -1.063876  2.123113
H    -4.465087  0.961271  4.564364
H    -4.181518  2.409095  3.640960
N    0.448152  -2.403942  2.534019
C    1.550468  -3.221101  2.068627
H    0.631888  -1.569937  3.081158
H    2.134083  -3.613404  2.912601
H    2.220799  -2.650786  1.409719
H    1.127950  -4.059689  1.504832
