29
Energy: -19156.3384453 eV PBE+vdW (tier 2 basis)
C    0.514755  -0.702142  0.720989
C    -0.139305  0.538585  1.288705
O    0.304206  1.672356  1.114839
H    -0.162381  -1.248178  0.049026
H    0.807485  -1.388861  1.528199
H    1.401546  -0.391848  0.162820
N    -1.274564  0.354104  2.045472
C    -2.009650  -0.876537  2.259433
C    -3.075109  -1.260157  1.204809
O    -3.297571  -2.454302  1.004972
H    -1.650018  1.223714  2.413050
H    -1.296034  -1.707315  2.202729
C    -2.636851  -0.905670  3.664808
C    -1.594078  -0.928280  4.800931
C    -0.744480  -2.193260  4.766191
O    0.206692  -2.326650  4.000249
N    -1.129448  -3.186780  5.621542
H    -3.285411  -1.790725  3.727705
H    -3.288683  -0.026472  3.798155
H    -2.110151  -0.823729  5.766000
H    -0.906717  -0.078730  4.695671
H    -1.933229  -3.099769  6.227764
H    -0.642847  -4.074336  5.580003
N    -3.759792  -0.298315  0.516654
C    -3.768188  1.151615  0.653464
H    -4.413820  -0.705074  -0.144942
H    -4.618480  1.537635  0.080216
H    -2.853248  1.620144  0.267159
H    -3.916103  1.466561  1.696284
