29
Energy: -19156.5250929 eV PBE+vdW (tier 2 basis)
C    0.697741  -0.044410  0.460833
C    0.348125  0.417994  1.862286
O    1.155374  1.008779  2.582035
H    1.552602  -0.729438  0.520309
H    1.015887  0.824167  -0.128799
H    -0.128614  -0.546822  -0.056319
N    -0.921261  0.134267  2.274118
C    -1.398513  0.488128  3.597276
C    -2.509839  -0.515944  3.935536
O    -3.281815  -0.890320  3.048524
H    -1.589184  -0.353827  1.683118
H    -0.540071  0.418573  4.279059
C    -1.928375  1.944577  3.622071
C    -2.348073  2.440484  5.005971
C    -2.858745  3.877483  5.123702
O    -3.580989  4.217998  6.054307
N    -2.448635  4.757403  4.163139
H    -2.768635  2.011608  2.915023
H    -1.102350  2.552596  3.222920
H    -1.502041  2.363154  5.708877
H    -3.154526  1.823291  5.422717
H    -1.839673  4.493309  3.400870
H    -2.742564  5.722808  4.244949
N    -2.634758  -0.964909  5.214215
C    -1.819759  -0.697668  6.388128
H    -3.435912  -1.579791  5.332389
H    -1.698383  -1.623554  6.964152
H    -2.268979  0.064491  7.041670
H    -0.822345  -0.355585  6.096450
