29
Energy: -19156.1935946 eV PBE+vdW (tier 2 basis)
C    -0.139895  0.856473  0.060140
C    -0.239980  -0.140733  1.190801
O    0.618388  -0.999030  1.363492
H    0.866856  1.288809  0.073118
H    -0.875446  1.664733  0.080786
H    -0.264788  0.305157  -0.879860
N    -1.297954  -0.062377  2.087433
C    -2.545283  0.698095  2.023891
C    -3.168946  0.667637  0.598798
O    -3.053513  -0.325272  -0.110029
H    -1.316100  -0.889550  2.677813
H    -3.265527  0.088529  2.594605
C    -2.496225  2.049168  2.780895
C    -1.639942  3.209920  2.246772
C    -0.126133  3.268411  2.493571
O    0.517932  4.217801  2.061056
N    0.433323  2.284428  3.258845
H    -2.196744  1.823870  3.815958
H    -3.535139  2.404964  2.881938
H    -2.009395  4.143594  2.696953
H    -1.766012  3.352647  1.164155
H    1.445415  2.298191  3.327760
H    -0.020402  1.379407  3.337919
N    -3.895349  1.763955  0.238816
C    -4.609166  1.844504  -1.023202
H    -3.939024  2.553382  0.869583
H    -4.264036  2.702882  -1.615270
H    -5.692597  1.934099  -0.863015
H    -4.405835  0.922221  -1.576725
