29
Energy: -19155.3920047 eV PBE+vdW (tier 2 basis)
C    -1.121742  0.474326  0.327684
C    -0.568551  -0.032830  1.646178
O    0.544128  -0.554015  1.735996
H    -2.133620  0.892944  0.400690
H    -1.124648  -0.352657  -0.393846
H    -0.442208  1.244279  -0.060156
N    -1.398312  0.125748  2.731874
C    -1.011184  -0.253230  4.089731
C    -2.058577  -1.244817  4.644963
O    -2.937685  -0.876224  5.429261
H    -2.303177  0.570913  2.602620
H    -0.031907  -0.741767  3.977780
C    -0.874398  0.957985  5.022900
C    0.162030  1.969729  4.530851
C    0.403685  3.213114  5.387118
O    1.359611  3.955845  5.176251
N    -0.520813  3.481997  6.365607
H    -0.599360  0.572318  6.017608
H    -1.871359  1.414881  5.131367
H    -0.111528  2.345496  3.531920
H    1.147011  1.496972  4.403240
H    -1.233822  2.815816  6.638814
H    -0.331619  4.269685  6.977181
N    -1.977093  -2.543607  4.224919
C    -1.150669  -3.116297  3.169332
H    -2.750060  -3.109234  4.572947
H    -0.193718  -2.590478  3.084601
H    -1.646960  -3.068180  2.186377
H    -0.943454  -4.166714  3.409189
