29
Energy: -19156.5893003 eV PBE+vdW (tier 2 basis)
C    -0.367241  2.461922  0.778750
C    -0.000522  1.413245  1.815880
O    0.995546  1.538135  2.524327
H    0.165458  3.382911  1.030954
H    -1.445821  2.663722  0.728519
H    -0.040224  2.140483  -0.220332
N    -0.800678  0.300533  1.920648
C    -2.102869  0.058615  1.322963
C    -2.790591  -1.002982  2.227564
O    -2.397196  -1.187086  3.381609
H    -0.643262  -0.248702  2.768900
H    -2.739945  0.959236  1.408046
C    -2.038262  -0.316929  -0.169720
C    -1.341445  -1.652678  -0.472727
C    -2.268233  -2.664063  -1.143677
O    -3.496771  -2.617039  -1.045868
N    -1.648421  -3.648340  -1.847424
H    -1.530264  0.493462  -0.705123
H    -3.058996  -0.341656  -0.577176
H    -0.980582  -2.119566  0.459240
H    -0.444344  -1.506665  -1.089250
H    -0.641769  -3.702989  -1.922855
H    -2.211532  -4.383282  -2.257956
N    -3.853762  -1.649629  1.695158
C    -4.554268  -2.664260  2.466351
H    -3.947601  -1.701944  0.677907
H    -5.424579  -2.997635  1.892126
H    -4.888755  -2.246824  3.423303
H    -3.912591  -3.531387  2.684748
