29
Energy: -19156.6746874 eV PBE+vdW (tier 2 basis)
C    0.039291  0.630590  0.110349
C    -0.181826  -0.082604  1.429817
O    0.507769  -1.046535  1.775890
H    1.105949  0.863637  0.010872
H    -0.548400  1.550999  0.013600
H    -0.224071  -0.049934  -0.710424
N    -1.225013  0.395778  2.172208
C    -1.436033  -0.035864  3.545383
C    -2.846644  -0.627343  3.771321
O    -3.608349  -0.185598  4.637754
H    -1.597816  1.329217  1.949508
H    -0.708265  -0.849815  3.704760
C    -1.102327  1.071156  4.563460
C    -2.002148  2.325313  4.622914
C    -1.850060  3.353357  3.516175
O    -1.865672  3.087072  2.308150
N    -1.727881  4.644480  3.932818
H    -0.055185  1.362621  4.394799
H    -1.146758  0.613596  5.561016
H    -1.836247  2.812332  5.594399
H    -3.051905  1.994652  4.620859
H    -1.749984  4.899403  4.910125
H    -1.706990  5.377895  3.234175
N    -3.222038  -1.682248  2.995538
C    -2.481815  -2.394553  1.966823
H    -4.173257  -1.981768  3.187822
H    -2.789636  -3.447444  1.974569
H    -1.402543  -2.354789  2.152744
H    -2.667874  -1.981502  0.963422
