29
Energy: -19156.2971701 eV PBE+vdW (tier 2 basis)
C    -0.098890  3.208673  -0.309568
C    0.010787  1.883220  0.418109
O    0.952466  1.609639  1.158734
H    0.802438  3.788313  -0.096136
H    -0.979836  3.776753  0.022390
H    -0.192590  3.070823  -1.395746
N    -1.009985  0.982284  0.224805
C    -2.228551  1.170809  -0.540300
C    -3.306206  2.123815  0.036191
O    -4.128872  2.597300  -0.748762
H    -0.878887  0.110920  0.731027
H    -1.974689  1.649058  -1.497638
C    -2.878347  -0.180565  -0.893348
C    -3.494554  -0.938196  0.295339
C    -4.066070  -2.273396  -0.174030
O    -3.360318  -3.258751  -0.352737
N    -5.413776  -2.280084  -0.406862
H    -2.122339  -0.813519  -1.379415
H    -3.660401  0.024092  -1.636294
H    -4.267633  -0.321927  0.778005
H    -2.735773  -1.182870  1.051432
H    -5.979548  -1.446181  -0.325269
H    -5.829555  -3.113918  -0.804421
N    -3.358349  2.433664  1.366021
C    -2.606725  1.947843  2.519116
H    -4.115335  3.083598  1.556728
H    -3.136125  2.277946  3.419918
H    -1.583774  2.343397  2.560820
H    -2.558139  0.853130  2.551263
