29
Energy: -19156.6323115 eV PBE+vdW (tier 2 basis)
C    -0.209848  -0.685504  0.287891
C    -0.834161  -1.067528  1.615175
O    -1.275578  -2.206319  1.820549
H    0.661601  -1.329237  0.112246
H    0.102245  0.363881  0.232616
H    -0.932470  -0.889674  -0.511578
N    -0.862160  -0.082281  2.548230
C    -1.348844  -0.222121  3.908538
C    -1.052485  1.131081  4.581347
O    -0.256229  1.925921  4.074241
H    -0.382128  0.804793  2.388642
H    -2.439124  -0.386995  3.884263
C    -0.723417  -1.415888  4.681636
C    0.808569  -1.522231  4.579550
C    1.309208  -2.966818  4.530314
O    2.080125  -3.426018  5.368765
N    0.852838  -3.693811  3.466882
H    -1.192922  -2.320262  4.280736
H    -1.020878  -1.354638  5.736194
H    1.305676  -1.038419  5.426449
H    1.158479  -1.015612  3.667103
H    0.141207  -3.342214  2.826074
H    1.106490  -4.673164  3.427571
N    -1.685252  1.418184  5.750537
C    -2.676860  0.644253  6.478118
H    -1.387568  2.302118  6.152541
H    -3.363098  1.331643  6.986836
H    -2.224977  -0.016650  7.233242
H    -3.272375  0.030010  5.793722
