29
Energy: -19156.4244907 eV PBE+vdW (tier 2 basis)
C    0.036677  0.165161  0.558054
C    -0.158867  -0.031830  2.054082
O    0.790994  -0.012980  2.833222
H    -0.485120  1.064067  0.198947
H    -0.328131  -0.688601  -0.027863
H    1.107889  0.287874  0.378993
N    -1.436511  -0.236038  2.509303
C    -2.683757  -0.206447  1.770855
C    -3.668569  0.694393  2.542139
O    -3.606857  0.782465  3.766944
H    -1.541682  -0.217467  3.523697
H    -2.492855  0.204593  0.770921
C    -3.326521  -1.605529  1.628531
C    -2.470776  -2.593655  0.833672
C    -3.226209  -3.900803  0.605520
O    -4.344602  -3.926125  0.102448
N    -2.570696  -5.034966  0.991012
H    -4.307224  -1.520935  1.139165
H    -3.513074  -1.998065  2.639788
H    -1.506492  -2.759636  1.333895
H    -2.256900  -2.183703  -0.166261
H    -1.662313  -5.010696  1.433258
H    -3.031986  -5.928014  0.864592
N    -4.627959  1.336377  1.817838
C    -4.799842  1.354325  0.373346
H    -5.276861  1.870933  2.386727
H    -5.655815  1.994751  0.137778
H    -5.009440  0.355699  -0.036381
H    -3.922433  1.771439  -0.142411
