29
Energy: -19155.5503663 eV PBE+vdW (tier 2 basis)
C    -5.660504  -2.100495  1.582378
C    -4.573763  -1.050034  1.439091
O    -4.717840  -0.041352  0.739465
H    -5.381491  -2.937484  2.234669
H    -5.906630  -2.486793  0.584785
H    -6.563758  -1.619500  1.979754
N    -3.424120  -1.293601  2.136206
C    -2.281334  -0.400709  2.076313
C    -1.053330  -1.246006  2.456370
O    -1.158619  -2.203195  3.228907
H    -3.290634  -2.130692  2.703586
H    -2.203007  -0.021850  1.042989
C    -2.466410  0.804545  3.035172
C    -1.463250  1.948715  2.811418
C    -1.774411  3.135553  3.721368
O    -1.238516  3.287689  4.815745
N    -2.701194  4.021298  3.226045
H    -2.408607  0.449717  4.075303
H    -3.489213  1.171067  2.865983
H    -1.484261  2.262753  1.753852
H    -0.442121  1.633293  3.062030
H    -3.252550  3.804468  2.402673
H    -3.050703  4.733590  3.860066
N    0.128257  -0.842782  1.911388
C    1.403264  -1.462713  2.242801
H    0.113943  -0.070680  1.252273
H    2.081869  -0.738577  2.715840
H    1.883882  -1.876247  1.345295
H    1.198050  -2.275978  2.947234
