29
Energy: -19156.4009836 eV PBE+vdW (tier 2 basis)
C    0.654115  -0.669220  1.800226
C    -0.231269  0.377056  2.465528
O    0.247198  1.401933  2.947094
H    1.684674  -0.308689  1.852855
H    0.384967  -0.816147  0.744418
H    0.592988  -1.648835  2.294926
N    -1.576701  0.133916  2.512749
C    -2.298630  -1.029846  2.041909
C    -3.424827  -0.570435  1.094387
O    -4.000776  0.498049  1.273228
H    -2.142422  0.892004  2.891484
H    -1.587984  -1.669496  1.504721
C    -2.928196  -1.844179  3.200119
C    -1.931467  -2.193257  4.309916
C    -1.699210  -1.011483  5.256365
O    -2.633066  -0.346172  5.689133
N    -0.403445  -0.796055  5.638942
H    -3.372832  -2.761395  2.787212
H    -3.747053  -1.260856  3.646012
H    -0.986269  -2.579877  3.899351
H    -2.355829  -2.997638  4.929562
H    0.360722  -1.176078  5.095228
H    -0.217434  0.067987  6.137360
N    -3.780774  -1.424906  0.089547
C    -3.150735  -2.679904  -0.286415
H    -4.551185  -1.084532  -0.477233
H    -3.693588  -3.094958  -1.141841
H    -3.189845  -3.425634  0.520940
H    -2.102124  -2.546365  -0.592700
