29
Energy: -19155.3126122 eV PBE+vdW (tier 2 basis)
C    -4.743355  -1.356026  -0.610177
C    -3.843734  -0.334187  0.062669
O    -3.520579  0.722344  -0.480894
H    -5.092404  -2.150133  0.062318
H    -4.186720  -1.813908  -1.439339
H    -5.607839  -0.835688  -1.039547
N    -3.416274  -0.667118  1.326388
C    -2.410862  0.136143  2.029846
C    -1.557997  -0.836059  2.875839
O    -0.619263  -1.443115  2.362769
H    -3.620182  -1.595933  1.682610
H    -1.722795  0.527025  1.264262
C    -3.075057  1.343190  2.725432
C    -2.087576  2.332020  3.383637
C    -1.612091  1.974981  4.788705
O    -0.434833  1.833173  5.094126
N    -2.629002  1.761602  5.717667
H    -3.844567  1.001645  3.438013
H    -3.617669  1.873454  1.930315
H    -2.564784  3.324509  3.439542
H    -1.186450  2.447411  2.767100
H    -3.531219  2.207027  5.568442
H    -2.314391  1.731538  6.685395
N    -1.969895  -1.031583  4.166992
C    -1.159454  -1.791945  5.109654
H    -2.625358  -0.363489  4.567222
H    -0.527375  -2.477272  4.534722
H    -1.805949  -2.366512  5.785520
H    -0.511328  -1.124093  5.698769
