29
Energy: -19156.3444874 eV PBE+vdW (tier 2 basis)
C    -1.994210  1.176368  1.212903
C    -1.673222  0.002574  2.116416
O    -1.412108  -1.111310  1.660069
H    -2.477615  0.808222  0.302809
H    -1.046793  1.655471  0.927977
H    -2.633010  1.931008  1.689502
N    -1.739029  0.287059  3.459432
C    -1.072727  -0.444239  4.530099
C    0.448014  -0.130937  4.503361
O    1.013478  0.263257  3.490424
H    -1.908921  1.263550  3.671821
H    -1.487699  -0.034645  5.465468
C    -1.326491  -1.968257  4.545921
C    -2.717568  -2.373158  5.047899
C    -3.953603  -2.087040  4.189962
O    -5.018494  -1.766406  4.713290
N    -3.831341  -2.326028  2.850520
H    -0.583857  -2.417236  5.220675
H    -1.103324  -2.372764  3.552522
H    -2.924292  -1.914854  6.024752
H    -2.719500  -3.463021  5.212692
H    -2.924565  -2.261938  2.386979
H    -4.640207  -2.080154  2.290000
N    1.130473  -0.328334  5.675246
C    0.589124  -0.556063  7.006709
H    2.114791  -0.091496  5.600503
H    1.426293  -0.663316  7.704219
H    -0.002888  -1.479589  7.062846
H    -0.035445  0.280192  7.358245
