29
Energy: -19155.7601076 eV PBE+vdW (tier 2 basis)
C    -1.723534  3.525439  0.482579
C    -1.694638  2.125118  1.056970
O    -2.227306  1.162841  0.477350
H    -1.322651  4.283737  1.166196
H    -2.757501  3.778295  0.217108
H    -1.135144  3.533529  -0.445133
N    -1.037314  1.991895  2.243050
C    -0.855756  0.700735  2.913642
C    -2.114316  0.269887  3.734226
O    -2.083285  0.073937  4.958918
H    -0.761850  2.842632  2.738554
H    -0.768452  -0.041563  2.103796
C    0.425197  0.658618  3.772145
C    0.916111  1.997600  4.367827
C    -0.138534  2.927556  4.974112
O    -0.321685  4.059960  4.506653
N    -0.822357  2.454366  6.058252
H    1.246195  0.260994  3.159560
H    0.242777  -0.068974  4.574760
H    1.421793  2.596448  3.599383
H    1.665522  1.774910  5.142960
H    -1.015303  1.448032  6.080793
H    -1.610845  3.037619  6.333561
N    -3.213202  0.096036  2.963969
C    -4.507896  -0.282881  3.505088
H    -3.104264  0.281644  1.957176
H    -4.853365  -1.227700  3.061452
H    -5.258610  0.496063  3.306628
H    -4.400791  -0.413772  4.587426
