29
Energy: -19156.4287446 eV PBE+vdW (tier 2 basis)
C    -0.454986  -0.304521  -0.226723
C    -0.316142  0.269925  1.171128
O    0.671443  0.910296  1.520685
H    -0.194094  0.471727  -0.955036
H    -1.455601  -0.692998  -0.453415
H    0.272701  -1.118801  -0.340776
N    -1.377152  0.030596  2.005933
C    -1.422112  0.348488  3.435431
C    -0.635607  1.629114  3.819262
O    0.222666  1.614398  4.703561
H    -2.123475  -0.559103  1.655913
H    -2.478062  0.586414  3.657179
C    -1.025458  -0.841739  4.319486
C    0.381700  -1.422761  4.042442
C    1.118346  -1.798365  5.327620
O    1.324684  -2.962146  5.664865
N    1.521902  -0.720565  6.058362
H    -1.781484  -1.630168  4.190368
H    -1.104771  -0.510595  5.363582
H    0.989450  -0.689323  3.496367
H    0.317460  -2.329916  3.432814
H    1.262121  0.222237  5.769902
H    1.959052  -0.882360  6.956520
N    -1.038774  2.809112  3.269552
C    -1.962542  3.039945  2.175142
H    -0.441410  3.582722  3.545724
H    -1.500932  2.873163  1.189521
H    -2.311142  4.078044  2.225698
H    -2.842670  2.391898  2.261712
