29
Energy: -19155.6581678 eV PBE+vdW (tier 2 basis)
C    1.436621  -3.965999  1.886666
C    1.207224  -3.034604  3.059792
O    1.488959  -3.364832  4.221613
H    1.115217  -3.551660  0.922929
H    0.903056  -4.906699  2.072967
H    2.507923  -4.200736  1.834490
N    0.683007  -1.810273  2.759829
C    0.459949  -0.770004  3.770626
C    -0.891044  -1.018280  4.503888
O    -1.907129  -0.362468  4.255622
H    0.399341  -1.611569  1.804371
H    1.276550  -0.876261  4.503252
C    0.512654  0.608709  3.117469
C    0.468350  1.751056  4.138251
C    0.690463  3.098108  3.453571
O    1.601594  3.291531  2.650987
N    -0.178406  4.090553  3.828124
H    -0.341002  0.713024  2.428203
H    1.439297  0.696403  2.531882
H    1.284889  1.633046  4.870336
H    -0.480710  1.730533  4.691100
H    -1.018174  3.883929  4.356481
H    -0.112022  4.982811  3.347594
N    -0.817414  -2.013560  5.429568
C    -1.986927  -2.493130  6.147489
H    0.036447  -2.582563  5.411801
H    -2.331736  -3.462977  5.756073
H    -2.788484  -1.757073  6.018309
H    -1.760493  -2.603018  7.216714
