29
Energy: -19155.7485262 eV PBE+vdW (tier 2 basis)
C    -1.314246  -1.547237  -1.132409
C    -0.653202  -1.150703  0.176378
O    0.550297  -0.900737  0.256597
H    -1.224414  -0.708989  -1.836385
H    -2.373188  -1.814366  -1.025815
H    -0.764352  -2.393522  -1.563485
N    -1.497801  -1.116025  1.263846
C    -1.061308  -0.586583  2.550739
C    -1.457173  -1.509936  3.732155
O    -1.622709  -1.064703  4.872624
H    -2.514340  -1.162528  1.123808
H    0.041168  -0.600647  2.508789
C    -1.504260  0.868646  2.807771
C    -2.957407  1.207580  2.395810
C    -3.976523  0.151816  2.808468
O    -4.265062  -0.798777  2.067597
N    -4.563721  0.314405  4.030968
H    -0.833741  1.541013  2.254762
H    -1.357772  1.056189  3.880565
H    -3.028050  1.287155  1.302381
H    -3.227335  2.189181  2.812273
H    -4.096874  0.893271  4.722811
H    -5.062407  -0.495483  4.391933
N    -1.540299  -2.829276  3.414843
C    -1.869104  -3.856843  4.385904
H    -1.454365  -3.067001  2.429923
H    -1.098213  -4.640417  4.403349
H    -2.843496  -4.318015  4.164323
H    -1.916101  -3.377469  5.370478
