29
Energy: -19156.5903735 eV PBE+vdW (tier 2 basis)
C    -0.206629  -0.561303  -0.159374
C    0.155267  0.277478  1.056446
O    1.292419  0.704103  1.236346
H    0.709192  -0.735423  -0.729866
H    -0.928469  -0.037712  -0.802830
H    -0.646199  -1.530131  0.115616
N    -0.852606  0.560648  1.942909
C    -2.229002  0.102692  1.924298
C    -3.073176  1.202711  2.592404
O    -2.687266  1.738259  3.632619
H    -0.596296  1.141006  2.740563
H    -2.552257  -0.032058  0.881041
C    -2.399932  -1.239583  2.680154
C    -3.782986  -1.894878  2.559548
C    -4.981525  -1.216662  3.227303
O    -6.069184  -1.130796  2.661018
N    -4.794069  -0.781750  4.508551
H    -2.109624  -1.077093  3.730105
H    -1.651282  -1.935939  2.275911
H    -3.726321  -2.911072  2.981042
H    -4.062097  -2.017116  1.504264
H    -5.551077  -0.258224  4.932608
H    -3.866653  -0.640354  4.889675
N    -4.247296  1.488146  1.976401
C    -5.265813  2.333367  2.573015
H    -4.512242  0.925804  1.175721
H    -5.559304  3.136633  1.884963
H    -4.843031  2.776778  3.479979
H    -6.153089  1.736911  2.829614
