29
Energy: -19156.6992272 eV PBE+vdW (tier 2 basis)
C    0.112984  -0.962990  1.136372
C    -0.266076  -0.148720  2.362974
O    0.542828  0.097263  3.254881
H    1.179491  -1.192389  1.202555
H    -0.084311  -0.419968  0.201435
H    -0.449750  -1.906780  1.093077
N    -1.558320  0.315916  2.431176
C    -2.621405  0.091886  1.465994
C    -2.657117  1.101543  0.293989
O    -3.408176  0.921307  -0.665230
H    -1.821931  0.820248  3.285208
H    -2.468248  -0.885333  0.986965
C    -4.015755  0.037198  2.139208
C    -4.719976  1.371413  2.408273
C    -4.127588  2.241380  3.511509
O    -3.119832  1.949068  4.156611
N    -4.807688  3.397930  3.753648
H    -3.920899  -0.539880  3.069287
H    -4.669518  -0.534330  1.468738
H    -5.767834  1.164190  2.678690
H    -4.771205  1.964629  1.481154
H    -5.646300  3.650565  3.248806
H    -4.472399  4.011928  4.485760
N    -1.842486  2.177329  0.440432
C    -1.739886  3.230984  -0.547710
H    -1.258570  2.193761  1.271676
H    -1.986019  4.208473  -0.110138
H    -2.452434  3.006312  -1.349138
H    -0.728051  3.281738  -0.973893
