29
Energy: -19156.6526299 eV PBE+vdW (tier 2 basis)
C    -0.395097  0.145730  1.450838
C    -0.206015  -1.118829  2.258211
O    0.897447  -1.550834  2.580604
H    0.589632  0.589327  1.284117
H    -1.034732  0.869626  1.975549
H    -0.870375  -0.077810  0.484289
N    -1.348972  -1.790305  2.655811
C    -2.728282  -1.548048  2.262322
C    -3.625162  -0.996858  3.397621
O    -4.841587  -0.898019  3.244818
H    -1.140867  -2.672519  3.120160
H    -2.723820  -0.762806  1.493113
C    -3.369945  -2.804104  1.652550
C    -2.777169  -3.208873  0.289509
C    -3.110093  -2.192866  -0.794327
O    -2.505373  -1.127738  -0.911246
N    -4.149251  -2.523202  -1.615505
H    -4.448974  -2.618318  1.569742
H    -3.249825  -3.643416  2.356991
H    -3.147211  -4.207490  0.017362
H    -1.682125  -3.270956  0.354465
H    -4.686682  -3.370141  -1.492551
H    -4.460752  -1.841981  -2.297603
N    -2.962464  -0.616175  4.520820
C    -3.627123  -0.020750  5.662153
H    -1.955526  -0.742445  4.523075
H    -3.274493  1.005264  5.838277
H    -3.459055  -0.613190  6.572104
H    -4.700518  0.004655  5.444884
