29
Energy: -19155.6796951 eV PBE+vdW (tier 2 basis)
C    -4.863128  -2.837350  1.670787
C    -3.821926  -1.751631  1.493013
O    -3.056145  -1.729922  0.518817
H    -5.534489  -2.819734  0.802309
H    -5.459527  -2.732827  2.585645
H    -4.358888  -3.812110  1.675879
N    -3.788121  -0.789642  2.464034
C    -2.851746  0.342659  2.422773
C    -1.486520  -0.138016  2.985644
O    -1.137012  0.084077  4.155159
H    -4.350986  -0.910365  3.301812
H    -2.726448  0.592043  1.357657
C    -3.445280  1.539529  3.179052
C    -2.959609  2.924914  2.720013
C    -1.600827  3.501972  3.144725
O    -1.165067  4.499287  2.567784
N    -0.987455  2.944479  4.232936
H    -3.293235  1.401543  4.261636
H    -4.532176  1.510070  3.006258
H    -3.683838  3.673742  3.078804
H    -2.987156  3.000536  1.622956
H    -1.135804  1.954413  4.457986
H    -0.061242  3.317372  4.427459
N    -0.751792  -0.840936  2.091307
C    0.495068  -1.500716  2.448183
H    -1.233489  -1.107785  1.225427
H    1.239738  -1.347904  1.656372
H    0.349142  -2.581612  2.597488
H    0.859959  -1.062085  3.383084
