29
Energy: -19156.3081628 eV PBE+vdW (tier 2 basis)
C    -0.531017  -1.265442  0.295834
C    -0.664050  -0.612975  1.660190
O    -0.055364  -1.014496  2.646801
H    0.534086  -1.375718  0.060946
H    -1.024787  -0.713649  -0.513803
H    -0.960375  -2.274451  0.346629
N    -1.508282  0.466629  1.714730
C    -1.847305  1.159223  2.956330
C    -0.607961  1.569453  3.798286
O    -0.572597  1.366249  5.006981
H    -2.011489  0.724572  0.875154
H    -2.334849  2.099927  2.646338
C    -2.827976  0.366576  3.833769
C    -4.139055  0.046423  3.118864
C    -5.218905  -0.699713  3.903526
O    -6.357538  -0.814192  3.461107
N    -4.844289  -1.242946  5.098708
H    -3.007115  0.961085  4.739434
H    -2.308173  -0.548643  4.152718
H    -3.954111  -0.568358  2.223716
H    -4.627380  0.963655  2.755384
H    -3.914303  -1.137650  5.481452
H    -5.541143  -1.748977  5.631021
N    0.398108  2.250798  3.170835
C    0.544722  2.640124  1.781151
H    1.174860  2.441915  3.795614
H    1.250324  3.477977  1.728875
H    -0.406708  2.990437  1.361688
H    0.926678  1.826466  1.145253
