29
Energy: -19155.4484992 eV PBE+vdW (tier 2 basis)
C    -0.612700  2.137133  1.238049
C    -0.246743  0.948734  2.101862
O    0.718723  0.219824  1.866426
H    -1.677671  2.399229  1.293692
H    -0.335070  1.923587  0.200452
H    -0.022628  2.997954  1.586389
N    -1.034028  0.784787  3.220113
C    -0.801920  -0.295281  4.157733
C    -2.153115  -0.957280  4.458987
O    -3.180799  -0.273361  4.530097
H    -1.921097  1.276712  3.308248
H    -0.096494  -0.972339  3.654707
C    -0.173924  0.178154  5.502195
C    0.903497  1.257244  5.327585
C    0.438567  2.659807  4.926176
O    1.104093  3.374373  4.179943
N    -0.708089  3.122262  5.532527
H    0.270229  -0.697201  6.001333
H    -0.974275  0.523301  6.178083
H    1.643696  0.957075  4.574431
H    1.444398  1.375710  6.280998
H    -1.382363  2.484717  5.941954
H    -1.056494  4.018027  5.203972
N    -2.159988  -2.298321  4.701309
C    -1.045940  -3.233074  4.580744
H    -3.078987  -2.666246  4.937832
H    -1.432056  -4.244957  4.744599
H    -0.265155  -3.047259  5.333503
H    -0.592666  -3.202313  3.580063
