29
Energy: -19155.7287996 eV PBE+vdW (tier 2 basis)
C    1.101849  -0.928511  1.164583
C    -0.127069  -1.115982  2.029915
O    -0.698650  -2.213704  2.126411
H    1.462562  0.106862  1.127038
H    0.874313  -1.271414  0.147528
H    1.902424  -1.570031  1.556113
N    -0.562898  -0.009714  2.696992
C    -1.652877  -0.018627  3.680965
C    -3.061654  0.018230  3.011258
O    -3.870830  0.937840  3.207115
H    -0.092664  0.875883  2.532582
H    -1.583853  -0.984572  4.208556
C    -1.467967  1.120466  4.686329
C    -1.322721  2.531488  4.054005
C    -2.121985  3.600032  4.810022
O    -1.583951  4.472182  5.491774
N    -3.471994  3.487145  4.642564
H    -0.585641  0.900949  5.304035
H    -2.335044  1.100941  5.360214
H    -1.681487  2.526413  3.012784
H    -0.278120  2.866876  4.061220
H    -3.859003  2.677287  4.150640
H    -4.071978  4.096304  5.188640
N    -3.317656  -1.060621  2.236105
C    -4.559099  -1.224671  1.497468
H    -2.559353  -1.750262  2.140706
H    -5.060041  -2.159696  1.785249
H    -4.372137  -1.241632  0.413817
H    -5.212474  -0.378462  1.736372
