29
Energy: -19156.8411593 eV PBE+vdW (tier 2 basis)
C    0.898118  -1.436003  0.564346
C    0.743680  -1.443775  2.069416
O    1.237176  -2.334193  2.772672
H    1.967514  -1.387792  0.323236
H    0.384848  -0.601421  0.071841
H    0.515169  -2.382150  0.163082
N    0.035699  -0.409920  2.605246
C    -0.135108  -0.224438  4.047203
C    -1.303946  -1.110105  4.567644
O    -2.406021  -0.644398  4.881934
H    -0.405140  0.261259  1.986245
H    0.795273  -0.582682  4.514561
C    -0.358735  1.249640  4.369797
C    -0.337802  1.548242  5.887344
C    -1.443367  2.509695  6.331697
O    -1.205467  3.632680  6.768814
N    -2.701426  2.002824  6.201244
H    -1.324816  1.555785  3.942163
H    0.419374  1.839176  3.866248
H    0.615499  1.997322  6.183706
H    -0.453114  0.613563  6.457037
H    -2.854059  1.085795  5.778681
H    -3.485615  2.600958  6.428216
N    -0.990274  -2.423348  4.626886
C    -1.953334  -3.446109  4.988279
H    -0.092389  -2.691899  4.211029
H    -1.473593  -4.206516  5.616345
H    -2.376884  -3.938432  4.099728
H    -2.769485  -2.975626  5.545904
