29
Energy: -19156.646798 eV PBE+vdW (tier 2 basis)
C    -1.093390  -0.651823  -0.066593
C    -0.657738  -0.054646  1.256592
O    0.232224  0.810458  1.290377
H    -1.439496  0.159006  -0.719601
H    -1.884894  -1.405698  0.018681
H    -0.219047  -1.106998  -0.548335
N    -1.312695  -0.524092  2.350056
C    -1.154028  -0.220806  3.790552
C    -1.339803  1.247044  4.256302
O    -1.888808  1.438492  5.340140
H    -2.039706  -1.200590  2.151708
H    -2.021468  -0.707000  4.253919
C    0.082797  -0.883140  4.444695
C    1.473466  -0.528503  3.906226
C    1.961576  0.870215  4.288123
O    1.962514  1.266455  5.448519
N    2.468124  1.605512  3.249195
H    -0.050941  -1.972033  4.360731
H    0.039846  -0.637832  5.515643
H    1.537706  -0.690159  2.823610
H    2.193052  -1.220020  4.371226
H    2.159451  1.393775  2.305381
H    2.723848  2.564855  3.456771
N    -0.857873  2.227347  3.460449
C    -0.811804  3.604796  3.912944
H    -0.329139  1.944637  2.630394
H    -0.721784  4.267839  3.045164
H    0.039204  3.774337  4.591860
H    -1.730767  3.843631  4.459737
