29
Energy: -19156.0317352 eV PBE+vdW (tier 2 basis)
C    0.101846  0.234820  0.428594
C    -0.034325  0.125814  1.933238
O    0.946673  0.126700  2.672077
H    -0.182174  -0.713074  -0.049291
H    1.150699  0.441383  0.201378
H    -0.522518  1.032435  0.007675
N    -1.296521  0.021207  2.474260
C    -2.615195  -0.116199  1.848611
C    -2.724320  -1.475038  1.089063
O    -2.652325  -2.496611  1.771557
H    -1.255247  -0.181918  3.468025
H    -3.278311  -0.317386  2.702900
C    -3.129255  1.184149  1.208638
C    -4.657241  1.185062  1.053039
C    -5.126885  2.285048  0.106499
O    -4.649179  2.419764  -1.016991
N    -6.115430  3.097337  0.579140
H    -2.668883  1.392848  0.237781
H    -2.830455  2.007521  1.873201
H    -5.140690  1.261148  2.038267
H    -4.998889  0.234264  0.612649
H    -6.509633  2.989582  1.503301
H    -6.474738  3.826176  -0.025987
N    -2.921715  -1.578800  -0.262646
C    -2.915383  -0.624116  -1.368479
H    -2.960841  -2.560164  -0.524658
H    -1.936875  -0.144592  -1.505905
H    -3.674421  0.160584  -1.273373
H    -3.137933  -1.186275  -2.281667
