29
Energy: -19156.3854871 eV PBE+vdW (tier 2 basis)
C    -0.578811  -1.174711  0.144594
C    -0.979015  -1.398796  1.587879
O    -0.414736  -2.225269  2.300009
H    -1.301659  -1.655251  -0.529890
H    0.397457  -1.643447  -0.003958
H    -0.528485  -0.116408  -0.135184
N    -2.035634  -0.674691  2.102607
C    -2.845436  0.395857  1.519814
C    -3.424640  0.005598  0.136813
O    -3.187260  0.657337  -0.884867
H    -2.198839  -0.892092  3.081461
H    -3.712783  0.491023  2.195018
C    -2.142418  1.759806  1.472980
C    -3.117409  2.941567  1.260466
C    -2.580594  4.002291  0.297058
O    -2.276098  5.134211  0.661925
N    -2.477353  3.574649  -0.993776
H    -1.387404  1.743693  0.676953
H    -1.599497  1.887128  2.418057
H    -3.328289  3.448342  2.208097
H    -4.075151  2.575326  0.859747
H    -2.680311  2.606556  -1.238836
H    -2.070428  4.201180  -1.676529
N    -4.222979  -1.094758  0.086658
C    -4.621282  -1.989330  1.162622
H    -4.546966  -1.307781  -0.851925
H    -5.502839  -2.550979  0.835063
H    -4.904761  -1.427897  2.062270
H    -3.828453  -2.700624  1.432664
