29
Energy: -19156.2677911 eV PBE+vdW (tier 2 basis)
C    0.562542  0.866023  0.642775
C    0.128071  -0.302029  1.504921
O    0.832572  -1.294002  1.684014
H    1.525129  0.615563  0.190423
H    0.672148  1.783315  1.239063
H    -0.167284  1.082084  -0.149646
N    -1.106077  -0.207654  2.102588
C    -2.024291  0.919332  2.086489
C    -1.607305  2.188749  2.872143
O    -2.072365  3.268142  2.509935
H    -1.336105  -1.018543  2.669319
H    -2.099552  1.296002  1.056349
C    -3.446454  0.485916  2.485945
C    -3.618970  0.038581  3.938099
C    -5.084460  -0.266827  4.263404
O    -6.018866  0.209994  3.633302
N    -5.274351  -1.104132  5.328786
H    -3.760186  -0.319880  1.806327
H    -4.121879  1.329175  2.300316
H    -3.300699  0.842066  4.623366
H    -3.003892  -0.843152  4.180200
H    -4.507465  -1.473546  5.873871
H    -6.222526  -1.282333  5.636881
N    -0.752361  2.126375  3.939480
C    -0.097087  1.010315  4.611069
H    -0.577854  3.052783  4.317588
H    0.725471  0.579160  4.025135
H    -0.799949  0.207361  4.863667
H    0.316990  1.388085  5.552784
