29
Energy: -19156.327001 eV PBE+vdW (tier 2 basis)
C    0.417486  0.720420  -0.007823
C    0.280202  0.878408  1.494229
O    0.941587  1.705929  2.127195
H    1.481967  0.675356  -0.264439
H    -0.001710  1.613259  -0.490269
H    -0.092773  -0.164913  -0.405861
N    -0.633030  0.062992  2.086540
C    -0.930150  0.077277  3.515506
C    -1.488878  1.467720  3.932270
O    -2.587706  1.785914  3.479105
H    -1.111422  -0.641339  1.536205
H    -1.833439  -0.540942  3.607831
C    0.168798  -0.596345  4.355849
C    0.480345  -2.037502  3.891338
C    -0.761975  -2.906881  3.750569
O    -1.432861  -2.936214  2.719340
N    -1.116659  -3.620376  4.859759
H    -0.155876  -0.603707  5.407647
H    1.103938  -0.028917  4.304189
H    1.201420  -2.488403  4.588480
H    0.953553  -2.006880  2.902432
H    -0.560196  -3.621496  5.703382
H    -1.957125  -4.184931  4.826140
N    -0.861928  2.269246  4.845735
C    0.545014  2.355310  5.224700
H    -1.419266  3.102744  5.010415
H    0.724868  3.364660  5.611297
H    1.191355  2.200975  4.352386
H    0.807233  1.644860  6.021654
