29
Energy: -19155.7729843 eV PBE+vdW (tier 2 basis)
C    2.258353  -2.404727  1.774240
C    1.975347  -1.956649  3.198304
O    2.642926  -2.351762  4.156024
H    2.182617  -3.499030  1.723429
H    3.294768  -2.139710  1.526745
H    1.583430  -1.956936  1.034036
N    0.899378  -1.105649  3.328829
C    0.644653  -0.408955  4.583439
C    -0.644504  -0.863419  5.305960
O    -1.077457  -0.240078  6.280726
H    0.537452  -0.627735  2.488453
H    1.470543  -0.696303  5.256648
C    0.656674  1.126394  4.432677
C    -0.550854  1.769908  3.719000
C    -0.562440  1.703660  2.196912
O    -0.161608  0.735933  1.534748
N    -1.079105  2.800232  1.571553
H    1.596109  1.422125  3.942529
H    0.673933  1.536138  5.450959
H    -0.623859  2.822051  4.032537
H    -1.481394  1.292099  4.070171
H    -1.448632  3.591414  2.084263
H    -1.185050  2.772151  0.562058
N    -1.229923  -1.977229  4.790491
C    -2.390967  -2.606944  5.391287
H    -0.760551  -2.401869  3.993455
H    -2.138356  -3.590414  5.815330
H    -3.195207  -2.733045  4.652180
H    -2.740275  -1.951652  6.198017
