29
Energy: -19156.6292039 eV PBE+vdW (tier 2 basis)
C    -1.615059  -2.115723  -0.597361
C    -1.037780  -1.267755  0.518259
O    0.166240  -1.022063  0.595859
H    -1.364946  -1.647818  -1.557541
H    -2.702069  -2.248694  -0.537215
H    -1.131589  -3.100215  -0.577592
N    -1.947288  -0.789160  1.422246
C    -1.583762  0.053193  2.554771
C    -1.679081  -0.788660  3.847067
O    -2.773799  -0.969814  4.400177
H    -2.917646  -1.073920  1.345297
H    -0.550155  0.369720  2.367897
C    -2.503867  1.274157  2.646910
C    -2.165544  2.207584  3.833206
C    -3.377498  2.625404  4.671665
O    -3.694737  3.802211  4.822545
N    -4.056339  1.589624  5.241341
H    -3.540632  0.919303  2.733078
H    -2.433171  1.823434  1.699402
H    -1.692086  3.131210  3.485985
H    -1.448636  1.716354  4.511745
H    -4.882635  1.804229  5.784903
H    -3.791913  0.617763  5.074726
N    -0.546503  -1.350026  4.332974
C    0.825581  -1.225441  3.852138
H    -0.702878  -1.884459  5.183577
H    1.335165  -0.355178  4.293204
H    0.854395  -1.148033  2.759071
H    1.377478  -2.127757  4.139263
