29
Energy: -19156.2432869 eV PBE+vdW (tier 2 basis)
C    0.168128  0.411601  0.147312
C    -0.100961  -0.525972  1.302175
O    0.705962  -1.393814  1.629144
H    0.214238  1.456993  0.479836
H    -0.618713  0.315683  -0.610128
H    1.133773  0.135484  -0.284022
N    -1.260446  -0.389182  2.043590
C    -2.503142  0.362714  1.875823
C    -3.375933  -0.208200  0.736252
O    -2.896670  -0.539284  -0.350139
H    -1.304364  -1.122910  2.745156
H    -3.029350  0.183688  2.821305
C    -2.350079  1.912680  1.771058
C    -2.530779  2.560755  0.392728
C    -3.998805  2.698834  -0.009629
O    -4.856012  3.114469  0.768261
N    -4.276717  2.387562  -1.309479
H    -1.363619  2.166500  2.179227
H    -3.091124  2.374483  2.437942
H    -1.958112  2.046257  -0.386237
H    -2.143662  3.590203  0.444538
H    -3.641086  1.803327  -1.839226
H    -5.247864  2.415414  -1.599075
N    -4.712771  -0.315797  0.981052
C    -5.475366  0.159838  2.128649
H    -5.235957  -0.623874  0.166533
H    -6.499654  -0.216200  2.035770
H    -5.512853  1.258372  2.171082
H    -5.070223  -0.233267  3.070501
