29
Energy: -19156.438123 eV PBE+vdW (tier 2 basis)
C    -0.266286  0.001780  0.103537
C    -0.374147  -0.488624  1.533055
O    0.550496  -1.073413  2.087288
H    0.166156  1.012392  0.107014
H    -1.220124  0.039878  -0.434523
H    0.430669  -0.655335  -0.425433
N    -1.557676  -0.272763  2.219728
C    -2.737675  0.507654  1.843914
C    -3.577650  -0.127293  0.701553
O    -4.352531  0.552655  0.032467
H    -1.478204  -0.549906  3.194029
H    -3.399351  0.447705  2.724447
C    -2.489789  2.002030  1.574647
C    -1.860513  2.720241  2.766648
C    -1.566491  4.215024  2.630369
O    -0.867711  4.799532  3.450138
N    -2.128729  4.860303  1.564241
H    -3.472479  2.422775  1.319573
H    -1.862483  2.116402  0.679303
H    -0.902634  2.260099  3.046835
H    -2.505948  2.623475  3.655572
H    -1.975235  5.857582  1.479167
H    -2.735662  4.400366  0.899464
N    -3.424460  -1.469740  0.560500
C    -4.154686  -2.246537  -0.421704
H    -2.727531  -1.919305  1.144651
H    -4.734523  -3.045637  0.059871
H    -3.474953  -2.697349  -1.158465
H    -4.841680  -1.568568  -0.939097
