29
Energy: -19156.5242454 eV PBE+vdW (tier 2 basis)
C    -0.416416  -0.046486  0.111912
C    0.082637  -0.667020  1.400873
O    0.922322  -1.562610  1.419839
H    -0.082951  0.997661  0.045039
H    -1.513180  -0.063304  0.039617
H    0.004836  -0.616862  -0.719947
N    -0.467985  -0.214659  2.582615
C    -1.287197  0.965644  2.797158
C    -0.399917  2.238186  2.974711
O    0.587834  2.393382  2.257046
H    0.026384  -0.589642  3.388936
H    -1.831924  1.153979  1.860252
C    -2.348001  0.702217  3.876116
C    -1.801924  0.382400  5.285256
C    -2.384485  1.302252  6.352203
O    -2.591038  2.499354  6.137930
N    -2.631627  0.738305  7.562607
H    -2.967875  -0.135329  3.531039
H    -3.012222  1.574721  3.941274
H    -0.712168  0.550183  5.331026
H    -1.958502  -0.672413  5.545665
H    -2.470430  -0.243157  7.742116
H    -2.963590  1.327401  8.317118
N    -0.800511  3.155584  3.888579
C    -0.050190  4.385788  4.078178
H    -1.560153  2.962300  4.547560
H    -0.504610  4.944507  4.902814
H    -0.068774  5.003451  3.169831
H    1.002395  4.177008  4.315113
