29
Energy: -19155.5554263 eV PBE+vdW (tier 2 basis)
C    -0.689596  1.970964  0.289345
C    -1.096454  0.781489  1.140782
O    -0.570017  -0.323121  1.027951
H    0.289408  2.330580  0.636138
H    -1.402158  2.805031  0.326637
H    -0.567995  1.637837  -0.747993
N    -2.112822  1.031858  2.047757
C    -2.447442  0.088092  3.113598
C    -3.898784  -0.442725  3.049110
O    -4.373238  -1.084393  3.987655
H    -2.350133  2.008408  2.215952
H    -1.804279  -0.790252  2.933539
C    -2.157969  0.689973  4.495876
C    -0.659464  0.872885  4.768700
C    -0.424832  1.896357  5.876916
O    -0.906111  3.027711  5.830218
N    0.376243  1.486150  6.908873
H    -2.617262  0.036605  5.249804
H    -2.653728  1.671570  4.577658
H    -0.157674  1.280552  3.875994
H    -0.183176  -0.094652  4.987931
H    0.691166  0.527581  6.996308
H    0.519813  2.124541  7.685294
N    -4.568962  -0.168409  1.894955
C    -5.903619  -0.674273  1.625439
H    -4.050245  0.320762  1.170423
H    -6.279096  -1.121137  2.553325
H    -5.890180  -1.445046  0.840140
H    -6.574393  0.140061  1.317673
