29
Energy: -19156.6334475 eV PBE+vdW (tier 2 basis)
C    0.466054  -0.466013  0.040512
C    -0.124412  0.407718  1.130753
O    -0.926806  1.313577  0.879967
H    -0.337610  -0.776536  -0.636868
H    0.985068  -1.350435  0.428945
H    1.177481  0.131779  -0.544847
N    0.311374  0.125177  2.388955
C    -0.218315  0.785390  3.572850
C    0.762357  1.886922  4.045892
O    1.794511  1.590644  4.648068
H    0.853362  -0.725849  2.555428
H    -1.182680  1.224066  3.281252
C    -0.417691  -0.219974  4.716611
C    -1.253123  -1.453941  4.345682
C    -0.433020  -2.644952  3.849471
O    0.680199  -2.543249  3.332251
N    -1.032274  -3.859428  4.002354
H    -0.909177  0.312065  5.542960
H    0.571044  -0.521950  5.087649
H    -1.977778  -1.210156  3.550309
H    -1.852051  -1.774200  5.210648
H    -1.937611  -3.965633  4.438662
H    -0.555221  -4.682598  3.655317
N    0.448766  3.181365  3.760914
C    -0.719263  3.720550  3.075547
H    1.139407  3.837645  4.113561
H    -0.455322  4.700706  2.661519
H    -1.574064  3.859100  3.756934
H    -1.013789  3.072116  2.240653
