29
Energy: -19155.9696982 eV PBE+vdW (tier 2 basis)
C    -0.856142  -0.639036  -0.493070
C    -0.519088  -0.644121  0.975868
O    0.206778  -1.514475  1.450382
H    -1.446596  0.209215  -0.836075
H    0.084881  -0.695380  -1.053530
H    -1.428295  -1.550227  -0.702115
N    -0.953739  0.361277  1.841250
C    -1.958430  1.425526  1.796078
C    -3.340645  0.955669  1.282680
O    -3.487016  -0.028061  0.566491
H    -0.661765  0.111108  2.782518
H    -2.107126  1.673339  2.858355
C    -1.491451  2.764172  1.161567
C    -1.217839  2.838922  -0.345586
C    0.158351  2.458466  -0.901886
O    0.390415  2.580111  -2.099091
N    1.114948  2.060268  -0.006627
H    -0.604737  3.098843  1.721155
H    -2.265350  3.509446  1.392214
H    -1.350783  3.880935  -0.671844
H    -1.961558  2.270279  -0.921951
H    0.849862  1.680033  0.895934
H    1.981458  1.719947  -0.409411
N    -4.426647  1.696195  1.673519
C    -4.524734  2.824828  2.582189
H    -5.289871  1.346325  1.268348
H    -3.802451  2.742376  3.404114
H    -4.370370  3.793193  2.080867
H    -5.525235  2.831320  3.030107
