29
Energy: -19156.2688763 eV PBE+vdW (tier 2 basis)
C    -1.008661  0.242703  -0.234093
C    -0.610966  0.762172  1.131743
O    0.056855  1.783931  1.269243
H    -0.313123  -0.549772  -0.545670
H    -0.923849  1.071473  -0.942087
H    -2.017995  -0.181427  -0.274051
N    -0.979513  0.039407  2.247835
C    -1.785817  -1.174156  2.380713
C    -1.333897  -2.313198  1.433224
O    -2.112428  -2.842078  0.642873
H    -0.656313  0.478501  3.104790
H    -1.584024  -1.534570  3.404056
C    -3.300750  -0.943577  2.268436
C    -3.813890  0.070951  3.289779
C    -5.320669  0.319991  3.355932
O    -5.828188  0.879489  4.321338
N    -6.060088  -0.080141  2.277866
H    -3.792309  -1.917689  2.401098
H    -3.526902  -0.621981  1.241027
H    -3.353414  1.056305  3.116033
H    -3.524515  -0.218110  4.311045
H    -5.667691  -0.596334  1.502365
H    -7.060770  0.071943  2.307490
N    -0.033360  -2.718248  1.527700
C    1.015759  -2.250492  2.420089
H    0.197073  -3.456490  0.870019
H    1.467996  -1.306661  2.084071
H    1.797684  -3.016701  2.465131
H    0.638294  -2.108476  3.441359
