29
Energy: -19156.4381766 eV PBE+vdW (tier 2 basis)
C    0.430772  -1.202730  1.058214
C    0.001441  0.169183  1.549566
O    0.767033  1.130237  1.539050
H    1.384371  -1.089966  0.535977
H    -0.303101  -1.659387  0.379802
H    0.573963  -1.890463  1.903322
N    -1.281844  0.300398  2.015304
C    -2.321487  -0.703076  2.125815
C    -3.660191  0.054474  2.176640
O    -3.723686  1.205819  2.608798
H    -1.559136  1.236791  2.310275
H    -2.305639  -1.349639  1.235559
C    -2.179624  -1.616328  3.373305
C    -2.087137  -0.851830  4.689173
C    -1.745535  -1.771138  5.859313
O    -1.281477  -2.897554  5.717223
N    -1.993386  -1.238560  7.095329
H    -1.280390  -2.235065  3.259766
H    -3.022138  -2.322501  3.408125
H    -3.013954  -0.298757  4.902014
H    -1.290218  -0.093009  4.620771
H    -2.290786  -0.279250  7.214700
H    -1.686155  -1.756551  7.909548
N    -4.775344  -0.619243  1.775799
C    -4.859210  -1.916273  1.121078
H    -5.625096  -0.070241  1.858770
H    -5.908950  -2.108723  0.877153
H    -4.513470  -2.733903  1.768535
H    -4.287215  -1.944718  0.182081
