29
Energy: -19156.1424157 eV PBE+vdW (tier 2 basis)
C    -1.944024  1.042805  0.350695
C    -1.344744  0.116591  1.392758
O    -0.647142  -0.844399  1.093147
H    -1.239083  1.140037  -0.480614
H    -2.191075  2.039964  0.738053
H    -2.864145  0.576743  -0.029708
N    -1.713548  0.411616  2.685671
C    -1.337709  -0.359092  3.855031
C    0.149836  -0.113765  4.232038
O    0.912445  0.523262  3.520366
H    -2.239700  1.261015  2.837081
H    -1.929098  0.063594  4.686307
C    -1.725094  -1.849694  3.707211
C    -3.207406  -2.117706  4.008865
C    -4.158884  -1.409995  3.045092
O    -4.198742  -1.660085  1.848487
N    -4.956051  -0.441644  3.612980
H    -1.115218  -2.469902  4.375343
H    -1.480515  -2.160351  2.685196
H    -3.436458  -1.852492  5.054390
H    -3.402884  -3.193744  3.897237
H    -5.071142  -0.382035  4.616092
H    -5.685443  -0.044257  3.031087
N    0.567289  -0.610009  5.444552
C    -0.192301  -1.252103  6.501225
H    1.549912  -0.423497  5.618638
H    0.250098  -0.990941  7.470547
H    -0.205596  -2.350706  6.417333
H    -1.231406  -0.899694  6.514691
