29
Energy: -19156.8224793 eV PBE+vdW (tier 2 basis)
C    0.041627  0.105827  -0.176862
C    -0.303330  -0.388063  1.210882
O    -0.111808  -1.563748  1.550976
H    1.119179  -0.026984  -0.336499
H    -0.215324  1.157980  -0.348360
H    -0.477032  -0.517629  -0.915169
N    -0.833932  0.533448  2.059423
C    -1.116952  0.276084  3.473701
C    -2.461249  -0.481476  3.688171
O    -3.391238  -0.026648  4.367039
H    -1.020993  1.466278  1.709619
H    -0.324059  -0.403981  3.824943
C    -1.056627  1.573383  4.278988
C    -1.991389  2.703979  3.776231
C    -2.707650  3.435102  4.916906
O    -2.455220  4.598936  5.216557
N    -3.639573  2.672149  5.551395
H    -0.017929  1.930135  4.287528
H    -1.306164  1.319057  5.316661
H    -2.765105  2.293365  3.109624
H    -1.432449  3.467637  3.223671
H    -3.761793  1.690367  5.297105
H    -4.113172  3.061053  6.356797
N    -2.504026  -1.691214  3.095513
C    -3.673155  -2.548022  3.174958
H    -1.676107  -1.980483  2.561925
H    -3.477475  -3.460396  2.602979
H    -4.560090  -2.048055  2.761792
H    -3.895970  -2.818344  4.216389
