29
Energy: -19156.7614968 eV PBE+vdW (tier 2 basis)
C    -1.502042  0.846977  0.215832
C    -1.057664  0.967325  1.659645
O    -0.066041  1.635770  1.989340
H    -0.699509  1.214372  -0.429697
H    -2.394776  1.464232  0.041826
H    -1.748300  -0.191055  -0.046084
N    -1.840181  0.303407  2.553073
C    -1.553162  0.040036  3.971945
C    -1.654510  1.255117  4.929171
O    -2.243513  1.121917  6.003029
H    -2.573358  -0.272946  2.155375
H    -2.370238  -0.609707  4.309155
C    -0.225546  -0.713006  4.197196
C    -0.192459  -2.121470  3.575405
C    -0.273893  -2.174181  2.051233
O    -1.244260  -2.635191  1.452433
N    0.823177  -1.698609  1.386595
H    -0.094544  -0.810875  5.284254
H    0.610594  -0.097639  3.835624
H    -1.033151  -2.719666  3.948638
H    0.733929  -2.623749  3.893652
H    0.763478  -1.617659  0.378495
H    1.532628  -1.151657  1.857783
N    -1.029385  2.384959  4.522107
C    -1.006671  3.590525  5.325888
H    -0.524268  2.344113  3.628390
H    -1.378186  4.449619  4.750590
H    0.010930  3.818303  5.676029
H    -1.651194  3.433368  6.197216
