29
Energy: -19156.6891118 eV PBE+vdW (tier 2 basis)
C    -0.039976  -0.272614  0.366721
C    -0.178285  -0.296805  1.879209
O    0.777200  -0.514434  2.619293
H    1.020845  -0.370530  0.122936
H    -0.433172  0.654658  -0.071897
H    -0.586661  -1.108259  -0.094185
N    -1.431244  -0.046424  2.396218
C    -2.669978  0.094248  1.644897
C    -2.931192  1.513795  1.084320
O    -3.810247  1.696695  0.243536
H    -1.520558  -0.192112  3.406621
H    -2.645574  -0.555535  0.755382
C    -3.888354  -0.312519  2.493093
C    -3.889694  -1.768946  2.963099
C    -3.113011  -2.009290  4.259773
O    -2.542527  -1.113090  4.881104
N    -3.112100  -3.296840  4.702632
H    -4.773499  -0.125261  1.873254
H    -3.958013  0.349753  3.368765
H    -3.489537  -2.434597  2.180820
H    -4.926342  -2.098147  3.136542
H    -3.549973  -4.047990  4.186687
H    -2.586430  -3.519350  5.539176
N    -2.146880  2.490487  1.606367
C    -2.259699  3.882764  1.223575
H    -1.446255  2.199041  2.281226
H    -2.521779  4.511765  2.085746
H    -3.054431  3.957661  0.473303
H    -1.320486  4.252887  0.789199
