29
Energy: -19155.6701631 eV PBE+vdW (tier 2 basis)
C    -5.654921  -2.752070  2.100234
C    -4.806399  -1.578503  1.642769
O    -5.024919  -0.976477  0.588118
H    -5.317780  -3.201038  3.043055
H    -5.646712  -3.516264  1.312558
H    -6.692052  -2.410701  2.214985
N    -3.783919  -1.230079  2.483805
C    -2.857492  -0.153196  2.176942
C    -1.534567  -0.501241  2.875849
O    -1.535734  -1.004583  4.006980
H    -3.587976  -1.745275  3.340947
H    -2.740140  -0.116517  1.081682
C    -3.416998  1.209886  2.662030
C    -2.579709  2.442740  2.291022
C    -1.221995  2.645551  2.968751
O    -0.248152  3.075996  2.348951
N    -1.173362  2.404145  4.318660
H    -3.595368  1.144606  3.748273
H    -4.407775  1.313385  2.196871
H    -3.171040  3.345673  2.515672
H    -2.384636  2.470729  1.209638
H    -1.860440  1.803780  4.763618
H    -0.251284  2.430877  4.744665
N    -0.409242  -0.187207  2.184248
C    0.920582  -0.230910  2.774199
H    -0.516800  0.287639  1.292089
H    1.595462  -0.847454  2.164976
H    0.827372  -0.677572  3.769935
H    1.331996  0.786079  2.855479
