29
Energy: -19156.2893067 eV PBE+vdW (tier 2 basis)
C    -0.664994  -0.176002  -0.418484
C    -0.623826  -0.916729  0.909716
O    -0.426684  -2.123516  0.967585
H    -1.206434  0.778114  -0.379924
H    -1.125044  -0.825477  -1.170002
H    0.368909  0.023450  -0.733103
N    -0.845248  -0.103408  2.003554
C    -0.602625  -0.416000  3.412249
C    0.890576  -0.173008  3.742978
O    1.776825  -0.652745  3.037931
H    -0.890993  0.887804  1.796655
H    -1.225247  0.290638  3.980063
C    -1.062774  -1.835851  3.799716
C    -1.021989  -2.128436  5.303940
C    0.336486  -2.320386  5.981323
O    0.531008  -1.940042  7.135566
N    1.280322  -3.004154  5.270551
H    -0.493430  -2.569969  3.218066
H    -2.099963  -1.939809  3.450426
H    -1.578665  -3.061735  5.484860
H    -1.541515  -1.352682  5.882344
H    2.207580  -3.047229  5.677707
H    1.224308  -3.072504  4.260405
N    1.193888  0.604027  4.825345
C    0.341564  1.163187  5.866422
H    2.195944  0.633985  4.996905
H    -0.624119  1.479211  5.456826
H    0.829416  2.056771  6.274175
H    0.168778  0.448839  6.685507
