29
Energy: -19156.5097516 eV PBE+vdW (tier 2 basis)
C    0.060627  -0.162037  0.158091
C    -0.062301  -0.502021  1.632469
O    0.831832  -1.069908  2.253293
H    1.091103  0.145722  -0.048025
H    -0.631176  0.627397  -0.162859
H    -0.141955  -1.064642  -0.434643
N    -1.265826  -0.145078  2.195763
C    -1.509855  -0.273158  3.625083
C    -2.689483  -1.185797  4.016566
O    -2.558072  -1.978799  4.946507
H    -1.827473  0.518714  1.673870
H    -0.628227  -0.798505  4.015235
C    -1.636841  1.090261  4.339418
C    -0.464100  2.025977  4.045808
C    -0.535916  2.651145  2.653304
O    -1.599878  2.902248  2.085236
N    0.668565  2.950509  2.091347
H    -1.696133  0.891002  5.417769
H    -2.568783  1.599513  4.054427
H    0.495003  1.505463  4.186367
H    -0.478012  2.863979  4.760765
H    1.541309  2.654214  2.507291
H    0.683516  3.377146  1.172897
N    -3.887910  -1.065207  3.365746
C    -4.289146  -0.182500  2.282552
H    -4.577096  -1.726831  3.709597
H    -5.382444  -0.104527  2.286963
H    -3.978821  -0.555489  1.294037
H    -3.897672  0.834286  2.416918
