29
Energy: -19156.3611018 eV PBE+vdW (tier 2 basis)
C    -0.077412  0.708443  0.478178
C    -0.724907  -0.354603  1.341145
O    -0.436940  -1.547532  1.260416
H    0.645282  0.218909  -0.179164
H    0.435428  1.468869  1.083205
H    -0.825339  1.235458  -0.131652
N    -1.686711  0.066002  2.230719
C    -2.104166  1.431610  2.510130
C    -1.150761  2.263668  3.401584
O    -0.924857  3.434271  3.101534
H    -2.056985  -0.688934  2.801526
H    -2.098762  1.992054  1.565774
C    -3.540588  1.473244  3.060547
C    -4.568717  0.790499  2.141364
C    -4.601024  1.432467  0.755645
O    -5.074838  2.546115  0.564520
N    -4.041481  0.689294  -0.247548
H    -3.812843  2.528970  3.191010
H    -3.584263  1.006701  4.057259
H    -5.569055  0.919031  2.574506
H    -4.376133  -0.289543  2.073066
H    -3.613296  -0.211261  -0.078887
H    -4.022467  1.076695  -1.183431
N    -0.583077  1.699497  4.510004
C    -0.721172  0.363978  5.070600
H    0.031481  2.347058  4.993549
H    -1.773767  0.061839  5.156321
H    -0.310639  0.378225  6.086278
H    -0.179236  -0.397922  4.492447
