29
Energy: -19156.3710793 eV PBE+vdW (tier 2 basis)
C    0.075380  0.724090  0.494164
C    -0.071461  0.573047  1.994821
O    0.842945  0.813323  2.779899
H    -0.579736  1.516643  0.105558
H    -0.190540  -0.200477  -0.036631
H    1.115444  0.980990  0.278855
N    -1.292672  0.140625  2.460901
C    -2.528973  -0.004481  1.708069
C    -3.167461  1.304054  1.180450
O    -3.665370  1.306809  0.054550
H    -1.341453  0.100561  3.476035
H    -2.318516  -0.557029  0.780496
C    -3.557704  -0.800876  2.525320
C    -3.150636  -2.258556  2.752661
C    -3.915373  -2.882322  3.918953
O    -4.205840  -2.248069  4.927794
N    -4.229168  -4.203360  3.773020
H    -4.521927  -0.757296  2.001088
H    -3.712235  -0.329410  3.507669
H    -2.081895  -2.313167  3.018802
H    -3.274566  -2.846701  1.831476
H    -3.976851  -4.731673  2.949229
H    -4.677795  -4.682109  4.544711
N    -3.180006  2.424089  1.960189
C    -2.738203  2.631109  3.333572
H    -3.622434  3.208097  1.490738
H    -3.163028  3.578133  3.684147
H    -1.644826  2.692511  3.422160
H    -3.106559  1.845423  4.005905
