29
Energy: -19156.2277715 eV PBE+vdW (tier 2 basis)
C    0.494787  0.822542  1.426820
C    -0.232587  -0.470499  1.729961
O    0.339447  -1.554430  1.815498
H    1.528653  0.579386  1.169792
H    0.490507  1.492421  2.298539
H    0.028590  1.374416  0.599368
N    -1.597665  -0.392560  1.905287
C    -2.409948  0.808720  2.026343
C    -2.119605  1.697575  3.260323
O    -2.093855  2.919225  3.121067
H    -2.018040  -1.286998  2.143561
H    -2.185586  1.479029  1.184526
C    -3.903211  0.426995  1.959399
C    -4.861022  1.606998  1.770828
C    -4.861774  2.357112  0.436442
O    -5.350755  3.474924  0.344635
N    -4.320278  1.714666  -0.646076
H    -4.184715  -0.106350  2.881100
H    -4.025711  -0.312222  1.150041
H    -4.694899  2.375929  2.536408
H    -5.894595  1.255788  1.914219
H    -3.997376  0.757277  -0.618636
H    -4.387834  2.175580  -1.545362
N    -1.914320  1.124932  4.484706
C    -1.908137  -0.271621  4.898269
H    -1.722508  1.821267  5.198438
H    -1.936692  -0.298486  5.993151
H    -1.011060  -0.811447  4.564677
H    -2.795828  -0.810291  4.541185
