29
Energy: -19156.7125117 eV PBE+vdW (tier 2 basis)
C    -0.743350  -0.045286  0.190064
C    -0.278374  0.069129  1.626622
O    0.923011  0.023748  1.921302
H    -0.180638  0.668476  -0.422732
H    -1.817610  0.126989  0.053825
H    -0.499740  -1.052156  -0.173771
N    -1.261885  0.227760  2.555936
C    -1.130175  0.184768  4.018248
C    -0.311535  1.279118  4.730364
O    -0.654916  1.576494  5.884385
H    -2.210076  0.286770  2.206045
H    -2.147744  0.378985  4.380367
C    -0.680446  -1.203662  4.552046
C    -1.844938  -2.144280  4.855918
C    -2.781122  -1.804511  6.024599
O    -3.755671  -2.519133  6.249761
N    -2.470995  -0.727075  6.802318
H    -0.075939  -1.057749  5.458293
H    -0.005884  -1.655589  3.813273
H    -1.462422  -3.151557  5.077403
H    -2.492410  -2.271494  3.974668
H    -1.777697  -0.010598  6.570922
H    -3.128596  -0.514421  7.543961
N    0.748771  1.799939  4.085959
C    1.635622  2.763055  4.713024
H    1.042958  1.308436  3.232113
H    1.948832  3.515287  3.978897
H    2.532684  2.277334  5.125820
H    1.100256  3.252654  5.532725
