29
Energy: -19156.4443947 eV PBE+vdW (tier 2 basis)
C    0.324163  -0.522419  0.730626
C    -0.070228  0.580893  1.702452
O    0.602457  1.603240  1.820152
H    1.266916  -0.228737  0.262087
H    -0.429768  -0.663470  -0.057475
H    0.461447  -1.489164  1.234875
N    -1.216942  0.403395  2.430759
C    -2.062843  -0.776866  2.487971
C    -3.573069  -0.414707  2.474657
O    -4.361778  -0.943945  3.259529
H    -1.407156  1.109672  3.149423
H    -1.894846  -1.357524  1.567691
C    -1.739780  -1.697407  3.683842
C    -1.459416  -0.972797  5.018481
C    -2.501990  0.071662  5.401409
O    -2.493615  1.205687  4.916446
N    -3.419282  -0.303975  6.337213
H    -0.843009  -2.282999  3.434960
H    -2.574426  -2.399515  3.802571
H    -0.502684  -0.438138  4.951742
H    -1.353861  -1.726844  5.810855
H    -4.222344  0.305186  6.451526
H    -3.562368  -1.286901  6.531746
N    -4.010381  0.477269  1.542293
C    -3.296411  1.129019  0.454082
H    -5.003999  0.664701  1.628563
H    -2.647921  0.424290  -0.082115
H    -2.683577  1.973859  0.794612
H    -4.038149  1.499146  -0.262960
