29
Energy: -19156.4244175 eV PBE+vdW (tier 2 basis)
C    -0.167484  0.015303  0.339927
C    -0.210285  0.600774  1.740499
O    0.766220  1.129437  2.261545
H    0.841960  0.162113  -0.052098
H    -0.884743  0.507038  -0.332424
H    -0.398409  -1.059160  0.341228
N    -1.409534  0.528577  2.414711
C    -2.622974  -0.176851  2.006518
C    -3.796360  0.687007  2.517414
O    -4.346509  0.453274  3.598663
H    -1.361534  0.860226  3.375780
H    -2.641067  -0.190451  0.908516
C    -2.685522  -1.627550  2.518661
C    -3.489679  -2.588847  1.633250
C    -5.006532  -2.436672  1.477221
O    -5.563911  -2.818028  0.450577
N    -5.696342  -1.963137  2.556487
H    -3.044473  -1.624959  3.558133
H    -1.651032  -1.997166  2.556030
H    -3.341789  -3.613174  2.011202
H    -3.090735  -2.590120  0.609228
H    -6.691034  -1.824216  2.415255
H    -5.244255  -1.373065  3.253442
N    -4.161608  1.744929  1.749332
C    -3.555552  2.198707  0.506527
H    -4.889066  2.318176  2.165388
H    -4.111346  3.072832  0.153208
H    -3.614053  1.431549  -0.278203
H    -2.505404  2.492668  0.645462
