29
Energy: -19156.296807 eV PBE+vdW (tier 2 basis)
C    -0.049962  0.222556  0.558188
C    -0.414474  -0.054803  1.999043
O    0.420973  -0.184184  2.892171
H    1.023212  0.423514  0.511038
H    -0.602949  1.074822  0.140685
H    -0.276199  -0.661360  -0.055853
N    -1.752429  -0.181311  2.294411
C    -2.891156  -0.099283  1.398089
C    -3.496948  1.308854  1.184337
O    -3.920066  1.605578  0.067456
H    -1.916218  -0.443364  3.261956
H    -2.558526  -0.373713  0.388446
C    -3.985507  -1.100381  1.822381
C    -3.723578  -2.546320  1.352050
C    -2.307099  -3.050218  1.623177
O    -1.435900  -3.040073  0.759917
N    -2.066646  -3.495714  2.893506
H    -4.945577  -0.773781  1.400325
H    -4.100256  -1.063499  2.918733
H    -3.859663  -2.601548  0.265422
H    -4.465818  -3.214500  1.814215
H    -2.780897  -3.513039  3.608413
H    -1.118651  -3.751389  3.143440
N    -3.574163  2.194640  2.221332
C    -3.220800  2.045351  3.625453
H    -3.981192  3.079513  1.934848
H    -2.134924  2.039111  3.790118
H    -3.647571  2.893409  4.172467
H    -3.650841  1.133545  4.062732
