29
Energy: -19156.7163976 eV PBE+vdW (tier 2 basis)
C    1.740535  -1.162028  1.772741
C    0.832962  -0.875535  2.951510
O    0.949692  -1.462846  4.028922
H    1.545744  -0.521341  0.904292
H    2.782180  -1.029718  2.089384
H    1.617580  -2.212556  1.480381
N    -0.111573  0.091569  2.741606
C    -1.089445  0.398935  3.771384
C    -2.309546  -0.535021  3.641948
O    -2.946916  -0.634860  2.582847
H    -0.287526  0.429865  1.798872
H    -0.573134  0.184522  4.713941
C    -1.490977  1.890334  3.802947
C    -2.449500  2.434579  2.726127
C    -1.890642  2.461588  1.302077
O    -1.350495  3.456361  0.827714
N    -2.019101  1.284782  0.613472
H    -0.557586  2.472541  3.791125
H    -1.958792  2.075107  4.782069
H    -2.671186  3.479527  2.974074
H    -3.393406  1.872682  2.746562
H    -2.513792  0.493692  1.037231
H    -1.773251  1.279437  -0.369537
N    -2.673069  -1.235309  4.743862
C    -1.950890  -1.359192  6.005919
H    -3.484188  -1.828845  4.596294
H    -2.412307  -2.166799  6.583609
H    -2.012560  -0.440487  6.607195
H    -0.896927  -1.615284  5.832888
