29
Energy: -19155.6295195 eV PBE+vdW (tier 2 basis)
C    -0.412472  1.677960  0.765962
C    -0.104923  0.921738  2.043337
O    1.058950  0.660790  2.385540
H    -1.477589  1.682270  0.503559
H    0.167744  1.234859  -0.052328
H    -0.077105  2.717795  0.885151
N    -1.186300  0.604283  2.809260
C    -1.103468  -0.256500  3.978503
C    -2.296891  -1.225915  3.886137
O    -3.300869  -0.925056  3.232348
H    -2.132564  0.698360  2.435059
H    -0.142023  -0.789617  3.909272
C    -1.164974  0.517678  5.317969
C    0.042751  1.436788  5.555968
C    -0.105563  2.808179  4.890259
O    -1.064930  3.540798  5.127513
N    0.945870  3.184109  4.091114
H    -1.228153  -0.212000  6.138615
H    -2.088839  1.116178  5.350970
H    0.976922  0.940419  5.256496
H    0.113013  1.650489  6.633407
H    1.483748  2.450826  3.628490
H    0.809401  4.047349  3.570487
N    -2.219707  -2.405564  4.568249
C    -1.138269  -2.916243  5.398177
H    -3.081454  -2.946395  4.522072
H    -1.141772  -4.012214  5.352456
H    -1.235765  -2.610728  6.452459
H    -0.166768  -2.573637  5.023502
