29
Energy: -19156.4188211 eV PBE+vdW (tier 2 basis)
C    0.073061  -0.141553  0.409275
C    0.026608  -0.206532  1.925469
O    0.968440  -0.684533  2.566015
H    0.147981  -1.164494  0.019070
H    0.985888  0.387963  0.110352
H    -0.793388  0.350217  -0.049252
N    -1.111809  0.299721  2.483538
C    -1.553190  0.374846  3.886382
C    -1.551226  1.813388  4.463615
O    -2.583330  2.237004  4.983828
H    -1.789968  0.662225  1.823462
H    -2.628243  0.145372  3.863092
C    -0.897667  -0.619149  4.857184
C    -1.171999  -2.092052  4.495917
C    -0.143904  -3.035237  5.120748
O    -0.398482  -3.751841  6.084184
N    1.078406  -3.004976  4.512195
H    -1.317110  -0.404104  5.849913
H    0.180036  -0.438614  4.921097
H    -1.153352  -2.223430  3.404531
H    -2.160563  -2.398939  4.855950
H    1.282822  -2.325993  3.781497
H    1.832389  -3.534162  4.932142
N    -0.420731  2.574400  4.420900
C    0.889131  2.298699  3.855007
H    -0.571134  3.495357  4.822859
H    1.648495  2.820863  4.449469
H    0.971148  2.641793  2.811154
H    1.123263  1.230089  3.877968
