29
Energy: -19156.5502973 eV PBE+vdW (tier 2 basis)
C    -0.679590  -0.677926  -0.030972
C    -1.159352  -0.937871  1.384867
O    -1.501351  -2.049978  1.776438
H    0.285381  -1.182198  -0.171725
H    -0.558476  0.385842  -0.270977
H    -1.389210  -1.129172  -0.734130
N    -1.200064  0.157129  2.207482
C    -1.500150  0.046165  3.627614
C    -2.856978  -0.596334  3.981092
O    -2.931866  -1.302990  4.993819
H    -0.858908  1.046758  1.862091
H    -0.774601  -0.641755  4.086293
C    -1.363393  1.437599  4.279514
C    -1.554646  1.459452  5.803983
C    -0.452251  0.690979  6.540792
O    0.627975  1.215710  6.804868
N    -0.769610  -0.592408  6.870033
H    -2.089053  2.127405  3.819456
H    -0.357627  1.821688  4.045743
H    -2.548146  1.075648  6.072111
H    -1.488133  2.499107  6.146441
H    -1.570090  -1.048072  6.422913
H    -0.029800  -1.166807  7.258058
N    -3.979266  -0.315316  3.266092
C    -4.164039  0.441794  2.039001
H    -4.781654  -0.832434  3.613563
H    -5.229529  0.682266  1.947037
H    -3.858125  -0.122756  1.145711
H    -3.613174  1.388006  2.062382
