29
Energy: -19155.5975543 eV PBE+vdW (tier 2 basis)
C    -5.368417  -0.224326  2.002825
C    -3.973957  -0.168755  1.410451
O    -3.749323  -0.041286  0.206841
H    -5.602002  0.746943  2.465020
H    -5.456398  -0.996146  2.779602
H    -6.087499  -0.422180  1.202127
N    -2.957949  -0.252057  2.341609
C    -1.576647  0.061690  1.983148
C    -0.680075  -0.877580  2.806729
O    -0.371068  -0.616394  3.979536
H    -3.206514  -0.222448  3.328232
H    -1.513156  -0.176141  0.911671
C    -1.157863  1.554106  2.194650
C    -2.273894  2.497450  2.654239
C    -2.930286  2.247293  4.014292
O    -4.050184  2.696948  4.267267
N    -2.195857  1.552062  4.939212
H    -0.764610  1.931322  1.240198
H    -0.321142  1.587917  2.907489
H    -3.092162  2.540905  1.922854
H    -1.864650  3.519701  2.706101
H    -1.384354  0.973937  4.695767
H    -2.651136  1.380195  5.831186
N    -0.286881  -2.010413  2.169801
C    0.468138  -3.067946  2.825386
H    -0.632666  -2.163209  1.226790
H    1.361311  -3.323813  2.239654
H    -0.146045  -3.970368  2.959865
H    0.774288  -2.694410  3.808456
