29
Energy: -19156.0989991 eV PBE+vdW (tier 2 basis)
C    0.216077  0.294407  0.559800
C    0.106333  -0.112620  2.011607
O    0.712572  -1.082574  2.460286
H    0.636424  1.302873  0.448478
H    -0.770039  0.262747  0.080375
H    0.879934  -0.420985  0.067463
N    -0.659951  0.646915  2.879948
C    -1.645529  1.701695  2.685356
C    -2.957512  1.169383  2.059649
O    -2.983808  0.205614  1.300665
H    -0.680261  0.206375  3.795119
H    -1.883785  2.020136  3.709370
C    -1.122918  2.973832  1.948768
C    -1.625478  3.207324  0.521532
C    -0.675773  4.102933  -0.274495
O    0.521049  4.193238  -0.026165
N    -1.257779  4.788957  -1.305377
H    -0.027237  2.930638  1.929260
H    -1.370486  3.854820  2.556926
H    -2.640377  3.632222  0.512841
H    -1.692874  2.256712  -0.029356
H    -2.219212  4.630095  -1.575884
H    -0.652946  5.291142  -1.944444
N    -4.105658  1.842850  2.385621
C    -4.266130  3.019553  3.222555
H    -4.926064  1.482238  1.908160
H    -3.901295  3.941148  2.741894
H    -3.751581  2.905724  4.186252
H    -5.331974  3.151643  3.437012
