29
Energy: -19156.6494409 eV PBE+vdW (tier 2 basis)
C    -0.470605  -0.560690  -0.439233
C    -0.076995  -0.157650  0.974529
O    1.095947  0.041010  1.282054
H    -1.101823  0.205238  -0.911969
H    -1.022814  -1.509090  -0.475354
H    0.450230  -0.662851  -1.019240
N    -1.079238  -0.029026  1.903596
C    -2.510873  -0.096679  1.698602
C    -3.167824  1.197730  2.210930
O    -2.679235  1.851522  3.129791
H    -0.786294  0.395691  2.783121
H    -2.712431  -0.188958  0.625289
C    -3.151570  -1.306680  2.422298
C    -2.860638  -2.632324  1.729240
C    -3.543946  -2.730813  0.363994
O    -4.393344  -1.928984  -0.021297
N    -3.139461  -3.778430  -0.411271
H    -4.239205  -1.162628  2.472894
H    -2.777209  -1.330656  3.455238
H    -3.223113  -3.470237  2.346296
H    -1.775506  -2.785907  1.617252
H    -2.471314  -4.463713  -0.084658
H    -3.596072  -3.927656  -1.302907
N    -4.334828  1.507575  1.581287
C    -5.176308  2.618154  1.985140
H    -4.669344  0.869053  0.866091
H    -5.393359  3.275359  1.132556
H    -4.631352  3.187281  2.745513
H    -6.126155  2.268989  2.415483
