29
Energy: -19156.6891373 eV PBE+vdW (tier 2 basis)
C    1.329304  0.312656  1.132393
C    0.785359  0.627184  2.508740
O    1.545769  0.741801  3.483224
H    1.437492  -0.779162  1.057370
H    2.317541  0.769404  1.021932
H    0.675436  0.648501  0.318029
N    -0.567694  0.747593  2.577796
C    -1.476096  0.729257  3.742152
C    -1.301953  1.803427  4.845023
O    -2.309863  2.163603  5.458628
H    -1.045479  0.571356  1.701412
H    -2.450537  1.005353  3.318855
C    -1.676010  -0.674519  4.362406
C    -0.466654  -1.328257  5.032275
C    0.448456  -2.076205  4.061305
O    0.069437  -2.493327  2.969369
N    1.705605  -2.327388  4.538479
H    -2.038813  -1.352154  3.576151
H    -2.484644  -0.560560  5.096852
H    -0.826492  -2.086410  5.746684
H    0.112994  -0.605964  5.624573
H    2.087877  -1.741016  5.269871
H    2.367312  -2.728585  3.883347
N    -0.059961  2.266750  5.096571
C    0.177117  3.250586  6.135707
H    0.724691  1.810787  4.608336
H    1.191615  3.647515  6.021748
H    0.072986  2.818596  7.143037
H    -0.545386  4.072090  6.053057
