29
Energy: -19155.8811938 eV PBE+vdW (tier 2 basis)
C    -0.964174  -0.253779  0.076684
C    -1.362517  0.431231  1.369720
O    -1.023335  1.601369  1.604616
H    -1.308688  0.358798  -0.766168
H    -1.364822  -1.269555  -0.024894
H    0.132098  -0.291280  0.027583
N    -2.116310  -0.319639  2.219277
C    -2.453251  0.054048  3.586276
C    -2.377473  -1.243807  4.416352
O    -2.423430  -2.353022  3.873692
H    -2.226335  -1.323322  2.050951
H    -1.690825  0.764285  3.946821
C    -3.861069  0.688566  3.707951
C    -3.915383  2.143911  3.220323
C    -3.080114  3.036365  4.142471
O    -3.417437  3.247350  5.311572
N    -1.953146  3.558767  3.575570
H    -4.180977  0.670175  4.760879
H    -4.567817  0.064066  3.141320
H    -4.952349  2.503074  3.284292
H    -3.589920  2.224906  2.174566
H    -1.553118  3.081896  2.759966
H    -1.319772  4.046064  4.204577
N    -2.280524  -1.058170  5.759455
C    -2.289952  -2.159597  6.710998
H    -2.268493  -0.104817  6.113444
H    -1.400068  -2.124659  7.354337
H    -2.282802  -3.092082  6.136468
H    -3.190996  -2.132142  7.340898
