29
Energy: -19156.3636017 eV PBE+vdW (tier 2 basis)
C    -0.068646  2.419241  -0.079887
C    0.034742  1.293081  0.939566
O    1.126317  0.867873  1.313751
H    0.948425  2.696178  -0.368722
H    -0.570651  3.306280  0.332852
H    -0.623748  2.113434  -0.978043
N    -1.131997  0.780948  1.443771
C    -2.486987  1.085298  1.018744
C    -3.457641  1.313415  2.204204
O    -4.609083  0.876713  2.172033
H    -1.027051  -0.057757  2.021694
H    -2.453687  2.051665  0.491059
C    -3.059481  0.064564  0.008462
C    -3.395713  -1.353300  0.517356
C    -2.227619  -2.149468  1.078585
O    -1.714373  -1.903373  2.172485
N    -1.773770  -3.171267  0.299096
H    -2.341766  0.003322  -0.823918
H    -3.990407  0.482722  -0.397490
H    -3.866249  -1.902772  -0.310979
H    -4.139914  -1.265988  1.318709
H    -2.189996  -3.397887  -0.593189
H    -0.987933  -3.719208  0.629297
N    -3.023210  2.043498  3.272516
C    -1.799525  2.809244  3.466828
H    -3.742198  2.128376  3.983979
H    -1.548831  3.408835  2.581835
H    -0.937724  2.175698  3.711595
H    -1.968194  3.506261  4.295698
