29
Energy: -19156.3391457 eV PBE+vdW (tier 2 basis)
C    -0.279985  -0.555528  -0.206751
C    -0.160426  -0.394857  1.297088
O    0.917277  -0.449650  1.883956
H    0.343311  0.205643  -0.691743
H    -1.306612  -0.470058  -0.584157
H    0.124170  -1.535575  -0.490583
N    -1.341732  -0.211892  1.966552
C    -1.385706  0.097373  3.386364
C    -1.255374  -1.055772  4.410121
O    -1.140501  -0.736639  5.594837
H    -2.193998  -0.114194  1.427286
H    -0.505408  0.719417  3.607159
C    -2.652786  0.904092  3.718428
C    -3.953324  0.083655  3.639873
C    -5.166013  0.977509  3.873101
O    -5.709011  1.595842  2.963888
N    -5.583501  1.060861  5.172535
H    -2.712323  1.764489  3.036192
H    -2.530625  1.297108  4.735083
H    -3.917726  -0.738711  4.369513
H    -4.090302  -0.359487  2.643748
H    -5.083026  0.609332  5.926580
H    -6.320536  1.716901  5.401188
N    -1.309131  -2.373044  4.058775
C    -1.392479  -3.050040  2.771576
H    -1.165715  -2.963584  4.872913
H    -0.481704  -2.919940  2.171107
H    -2.258567  -2.717488  2.188175
H    -1.518167  -4.120319  2.970413
