29
Energy: -19155.6052065 eV PBE+vdW (tier 2 basis)
C    -0.529564  -2.407092  -1.021651
C    -0.667107  -1.595770  0.253652
O    0.027875  -0.613904  0.495088
H    0.535581  -2.549542  -1.237986
H    -0.958486  -1.825723  -1.849897
H    -1.029701  -3.383476  -0.981297
N    -1.635023  -2.048629  1.138896
C    -2.080572  -1.233686  2.266138
C    -1.550100  -1.683505  3.640504
O    -1.931681  -1.093134  4.662119
H    -2.276063  -2.764824  0.805298
H    -1.606394  -0.248432  2.111248
C    -3.621712  -1.086795  2.299984
C    -4.133377  0.232562  1.717199
C    -3.869153  1.523973  2.506807
O    -4.161836  2.612891  2.011543
N    -3.357344  1.398492  3.767222
H    -3.969054  -1.199657  3.336387
H    -4.068078  -1.926659  1.742391
H    -5.226732  0.186916  1.595054
H    -3.728545  0.405889  0.708327
H    -2.954409  0.533905  4.146242
H    -3.143739  2.269709  4.243924
N    -0.661486  -2.703603  3.643020
C    0.008904  -3.164980  4.847729
H    -0.386590  -3.064589  2.732687
H    -0.111514  -4.250380  4.967297
H    -0.452082  -2.653527  5.700039
H    1.080981  -2.921431  4.822034
