29
Energy: -19156.2697612 eV PBE+vdW (tier 2 basis)
C    -0.389320  -0.507648  -0.066718
C    -0.133416  0.020907  1.331366
O    1.012252  0.113124  1.769745
H    0.545378  -0.419314  -0.628169
H    -1.196171  0.005817  -0.603564
H    -0.667654  -1.568277  -0.006368
N    -1.194380  0.377681  2.131203
C    -2.629384  0.505709  1.886825
C    -3.165601  -0.628664  0.977813
O    -2.937693  -1.802927  1.248610
H    -0.873777  0.714177  3.035812
H    -3.109329  0.254770  2.847360
C    -3.046091  1.961936  1.566597
C    -2.216446  2.684097  0.498124
C    -0.908530  3.227013  1.088057
O    -0.876146  3.757081  2.192923
N    0.188269  3.144321  0.278313
H    -2.936804  2.551867  2.488793
H    -4.120669  1.993275  1.329337
H    -2.774842  3.564846  0.145846
H    -2.026584  2.060097  -0.387246
H    0.199040  2.505145  -0.506171
H    1.084235  3.356025  0.704748
N    -3.928892  -0.244498  -0.085863
C    -4.552198  -1.201173  -0.980936
H    -4.082926  0.742649  -0.244212
H    -5.645167  -1.089502  -0.983374
H    -4.295455  -2.203188  -0.621840
H    -4.180476  -1.083687  -2.008531
