29
Energy: -19156.3798806 eV PBE+vdW (tier 2 basis)
C    0.106795  -0.721325  1.490781
C    -0.770016  -1.766159  2.147610
O    -0.398124  -2.387922  3.141321
H    1.113239  -0.831367  1.903777
H    -0.255021  0.288859  1.731169
H    0.134384  -0.842769  0.402452
N    -2.041369  -1.997567  1.656812
C    -2.756441  -1.545910  0.469465
C    -2.211690  -2.162800  -0.839927
O    -1.017397  -2.400062  -1.005425
H    -2.486615  -2.750433  2.172680
H    -3.781495  -1.911097  0.616599
C    -2.860855  -0.012535  0.312113
C    -3.493473  0.671213  1.520546
C    -4.964018  0.295458  1.702459
O    -5.668822  -0.110476  0.779809
N    -5.453366  0.465055  2.963369
H    -3.473083  0.194477  -0.575668
H    -1.870754  0.414888  0.114766
H    -3.454164  1.764333  1.387758
H    -2.929948  0.445950  2.437900
H    -4.869880  0.766065  3.732143
H    -6.431450  0.267955  3.137271
N    -3.127096  -2.383912  -1.830126
C    -4.581514  -2.314961  -1.765096
H    -2.711538  -2.794564  -2.661492
H    -4.922997  -1.473447  -1.150860
H    -5.025540  -3.240957  -1.365345
H    -4.970419  -2.161521  -2.778579
