29
Energy: -19156.6469502 eV PBE+vdW (tier 2 basis)
C    0.702398  -0.455613  1.800273
C    0.119978  0.561416  2.760499
O    0.787812  1.120657  3.624829
H    1.770289  -0.551041  2.011218
H    0.561248  -0.152689  0.753732
H    0.222313  -1.437198  1.920976
N    -1.222718  0.850531  2.619630
C    -2.180463  0.235018  1.711594
C    -2.026408  0.662997  0.235439
O    -2.377795  -0.098527  -0.669157
H    -1.580178  1.475563  3.337942
H    -2.047673  -0.857869  1.697662
C    -3.599027  0.551932  2.233447
C    -4.747778  0.126110  1.318641
C    -5.031038  1.148255  0.213470
O    -4.898243  2.355978  0.391717
N    -5.527926  0.625215  -0.947741
H    -3.686824  1.639102  2.389850
H    -3.702929  0.065182  3.213519
H    -5.671503  0.067933  1.915292
H    -4.579770  -0.873906  0.896101
H    -5.303868  -0.333387  -1.186408
H    -5.624193  1.272087  -1.723211
N    -1.526991  1.905327  0.037126
C    -1.516350  2.548272  -1.261849
H    -1.311965  2.452268  0.864050
H    -0.596195  3.130820  -1.391535
H    -2.386316  3.211351  -1.381895
H    -1.562242  1.767560  -2.028355
