29
Energy: -19156.6196102 eV PBE+vdW (tier 2 basis)
C    0.256116  0.576090  0.080780
C    -0.182897  -0.166282  1.328872
O    0.056124  -1.361383  1.495168
H    -0.221796  0.110868  -0.790548
H    1.339777  0.455156  -0.037308
H    0.013561  1.645796  0.092554
N    -0.847572  0.593893  2.255018
C    -1.421755  0.027680  3.468578
C    -2.957273  0.107947  3.340087
O    -3.523476  1.203552  3.412889
H    -1.128411  1.537937  2.010428
H    -1.069195  -1.009493  3.501438
C    -0.942866  0.795928  4.707265
C    -1.446188  0.207470  6.038555
C    -1.003608  -1.233785  6.262660
O    -1.737462  -2.196111  6.050187
N    0.282482  -1.393018  6.698662
H    -1.297609  1.834069  4.632268
H    0.156714  0.818009  4.682650
H    -2.542622  0.212758  6.062605
H    -1.095872  0.844124  6.864463
H    0.909967  -0.611749  6.831862
H    0.651897  -2.332554  6.779120
N    -3.628986  -1.043619  3.097532
C    -3.099813  -2.403627  3.016398
H    -4.633745  -0.915675  3.023419
H    -3.889584  -3.048201  2.615812
H    -2.800699  -2.778591  4.004685
H    -2.242610  -2.455848  2.333316
