29
Energy: -19156.9271855 eV PBE+vdW (tier 2 basis)
C    2.349310  -2.372905  1.916469
C    1.776992  -1.985568  3.262444
O    1.857624  -2.736601  4.247854
H    1.920909  -3.335248  1.610730
H    3.431995  -2.517171  2.024119
H    2.163391  -1.626623  1.135196
N    1.174484  -0.770931  3.317076
C    0.693199  -0.180742  4.571392
C    -0.711300  -0.730375  4.958984
O    -1.742832  -0.047450  4.934317
H    1.142197  -0.187464  2.479427
H    1.384123  -0.536738  5.352523
C    0.796126  1.351209  4.525149
C    -0.220403  2.137883  3.665377
C    -0.475399  1.510698  2.302303
O    0.408893  1.413001  1.441875
N    -1.740478  1.051218  2.111029
H    1.816505  1.584607  4.189290
H    0.714293  1.723919  5.555095
H    0.190678  3.140117  3.479697
H    -1.159972  2.248791  4.213953
H    -2.306164  0.853894  2.933054
H    -1.918480  0.517043  1.267198
N    -0.671099  -2.028681  5.336632
C    -1.861546  -2.785852  5.667485
H    0.229040  -2.510142  5.208783
H    -1.680226  -3.406881  6.553689
H    -2.170235  -3.441117  4.838449
H    -2.674418  -2.083030  5.877917
