29
Energy: -19156.2563628 eV PBE+vdW (tier 2 basis)
C    0.043032  0.234218  0.626993
C    -0.275797  -0.270735  2.018278
O    0.605753  -0.456525  2.854607
H    1.128921  0.195133  0.505630
H    -0.280886  1.277877  0.506779
H    -0.440629  -0.377603  -0.142357
N    -1.592300  -0.486991  2.382814
C    -2.846176  -0.495036  1.638498
C    -2.972534  -1.716351  0.695020
O    -2.006198  -2.188152  0.103340
H    -1.638687  -0.872501  3.321149
H    -3.619982  -0.579395  2.416625
C    -3.157302  0.794270  0.853927
C    -3.094465  2.054714  1.716579
C    -3.747361  3.240339  1.008297
O    -4.804661  3.137092  0.394921
N    -3.082463  4.427683  1.122260
H    -4.170383  0.718159  0.435749
H    -2.483112  0.886352  -0.007358
H    -2.063065  2.281725  2.018746
H    -3.662559  1.896771  2.648623
H    -3.494353  5.255824  0.709090
H    -2.213675  4.513977  1.631380
N    -4.229720  -2.227361  0.525494
C    -5.470321  -1.833375  1.175449
H    -4.259844  -2.999779  -0.132532
H    -5.750826  -0.793756  0.952930
H    -5.426887  -1.961893  2.267326
H    -6.272698  -2.477293  0.800850
