29
Energy: -19155.6260656 eV PBE+vdW (tier 2 basis)
C    0.162558  2.051038  2.033338
C    -0.260158  0.673511  2.504099
O    0.519235  -0.292181  2.509245
H    0.746814  2.529575  2.832704
H    -0.682623  2.705059  1.785436
H    0.815584  1.939252  1.160460
N    -1.533174  0.582504  2.973057
C    -2.146288  -0.656891  3.414696
C    -3.660545  -0.351133  3.505334
O    -4.088304  0.803041  3.412542
H    -2.180402  1.374844  2.952384
H    -1.983497  -1.428046  2.640570
C    -1.579320  -1.209000  4.748823
C    -1.592613  -0.216905  5.918459
C    -0.491618  0.845021  6.020376
O    -0.684770  1.884306  6.649310
N    0.740040  0.521627  5.502152
H    -0.569057  -1.594393  4.552716
H    -2.174955  -2.092689  5.028388
H    -1.518610  -0.784151  6.860624
H    -2.543677  0.331534  5.970824
H    0.826738  -0.109773  4.706182
H    1.422638  1.274341  5.541089
N    -4.463875  -1.432209  3.700594
C    -5.908286  -1.322796  3.848592
H    -4.037168  -2.352700  3.740645
H    -6.426784  -1.895950  3.067303
H    -6.168840  -0.263698  3.749251
H    -6.232041  -1.682136  4.835806
