29
Energy: -19156.0568093 eV PBE+vdW (tier 2 basis)
C    -0.084465  0.535388  0.095555
C    -0.051275  0.270143  1.587360
O    1.006300  0.141074  2.197539
H    0.939382  0.455338  -0.278502
H    -0.461186  1.544461  -0.120354
H    -0.717048  -0.189397  -0.433566
N    -1.246788  0.199353  2.272275
C    -2.628672  0.172926  1.782028
C    -2.894256  -1.154906  1.008338
O    -2.729139  -2.203660  1.628828
H    -1.105821  -0.118740  3.225897
H    -3.223555  -0.001927  2.691370
C    -3.098783  1.515279  1.202959
C    -2.922142  2.669114  2.188259
C    -3.064446  4.024601  1.498889
O    -2.812032  4.194621  0.310284
N    -3.478290  5.047048  2.306280
H    -4.160598  1.428350  0.930380
H    -2.566883  1.787393  0.285895
H    -1.906312  2.631379  2.615250
H    -3.620639  2.587080  3.035340
H    -3.610886  4.925077  3.301194
H    -3.483515  5.986186  1.926662
N    -3.307129  -1.200216  -0.296910
C    -3.573312  -0.180357  -1.303447
H    -3.450566  -2.164378  -0.583949
H    -3.734369  -0.694237  -2.257092
H    -2.729643  0.506409  -1.438681
H    -4.473679  0.409899  -1.084566
