29
Energy: -19156.5075186 eV PBE+vdW (tier 2 basis)
C    0.251874  -1.041082  0.598559
C    -0.114279  0.221598  1.355826
O    0.668400  1.158050  1.494878
H    1.327172  -1.011248  0.404611
H    -0.272792  -1.078240  -0.367434
H    -0.004661  -1.960276  1.141267
N    -1.389436  0.299857  1.871632
C    -2.397347  -0.753472  1.923329
C    -3.770318  -0.097319  1.671023
O    -4.542680  0.173309  2.591457
H    -1.554920  1.136488  2.427022
H    -2.179656  -1.456754  1.110622
C    -2.368373  -1.526839  3.248571
C    -3.303757  -2.734313  3.286312
C    -2.948965  -3.822165  2.274338
O    -1.903945  -3.832624  1.626451
N    -3.886824  -4.806340  2.137965
H    -2.639250  -0.843111  4.064241
H    -1.333370  -1.855077  3.413788
H    -4.347503  -2.416124  3.142122
H    -3.265586  -3.193016  4.287387
H    -4.735266  -4.822636  2.687682
H    -3.683469  -5.588191  1.527509
N    -4.079683  0.189865  0.372851
C    -3.238905  0.028257  -0.802992
H    -4.952898  0.697456  0.270025
H    -3.837649  0.260510  -1.689946
H    -2.886059  -1.007023  -0.905361
H    -2.366005  0.697356  -0.787780
