29
Energy: -19156.3831736 eV PBE+vdW (tier 2 basis)
C    -0.388632  -1.987695  1.586116
C    -0.345011  -0.544474  1.113885
O    0.709086  0.055393  0.937614
H    -0.838550  -2.650133  0.832619
H    0.640189  -2.309843  1.764714
H    -0.965851  -2.096887  2.514696
N    -1.552376  0.076394  0.877363
C    -2.888274  -0.465019  1.096449
C    -3.782464  0.037703  -0.059099
O    -4.614892  0.938616  0.094029
H    -1.469177  1.070454  0.673338
H    -2.803910  -1.553145  0.981596
C    -3.520853  -0.181829  2.492692
C    -2.765027  0.774684  3.420357
C    -2.679811  2.271681  3.103941
O    -2.003552  3.008746  3.816052
N    -3.377251  2.727895  2.025541
H    -3.608122  -1.144071  3.016628
H    -4.549500  0.171273  2.338587
H    -1.726335  0.448464  3.570841
H    -3.227795  0.722993  4.417214
H    -3.352632  3.726946  1.857769
H    -3.981076  2.143522  1.441275
N    -3.599728  -0.542292  -1.274062
C    -2.645050  -1.574447  -1.648346
H    -4.170171  -0.131412  -2.006587
H    -2.833595  -1.854004  -2.689698
H    -2.766585  -2.480135  -1.037478
H    -1.606292  -1.226655  -1.564120
