29
Energy: -19156.6829341 eV PBE+vdW (tier 2 basis)
C    0.598073  0.203141  0.320237
C    0.342197  -0.229791  1.750487
O    1.234649  -0.703307  2.463892
H    1.447187  0.897063  0.304881
H    -0.271323  0.678001  -0.149673
H    0.883824  -0.679194  -0.266856
N    -0.930842  -0.061259  2.190305
C    -1.312743  -0.449205  3.533021
C    -1.364360  -1.987960  3.673099
O    -2.093181  -2.674203  2.950769
H    -1.666261  0.336839  1.593226
H    -0.554337  -0.052534  4.222043
C    -2.664289  0.178654  3.934963
C    -3.919564  -0.280455  3.168555
C    -4.205572  0.460394  1.873895
O    -3.334146  0.964520  1.158144
N    -5.520465  0.528713  1.522159
H    -2.559126  1.271656  3.868419
H    -2.817357  -0.055861  4.998099
H    -4.796100  -0.204051  3.827843
H    -3.806109  -1.347204  2.907660
H    -5.754440  0.904926  0.611268
H    -6.240573  0.057877  2.052628
N    -0.623453  -2.548521  4.668782
C    0.464232  -1.937081  5.425212
H    -0.703218  -3.560727  4.691250
H    1.155328  -1.410358  4.753080
H    1.013158  -2.734855  5.937214
H    0.092175  -1.244862  6.194973
