29
Energy: -19155.4240934 eV PBE+vdW (tier 2 basis)
C    0.402713  0.264645  0.289416
C    0.109395  -0.168872  1.715168
O    0.923102  -0.789962  2.393725
H    1.200972  1.019077  0.311585
H    -0.465753  0.680760  -0.237638
H    0.786729  -0.598124  -0.268508
N    -1.147885  0.170468  2.186280
C    -1.505334  0.016200  3.595282
C    -2.830399  -0.749019  3.817446
O    -3.383979  -0.735547  4.916302
H    -1.688389  0.829314  1.630664
H    -0.709800  -0.622186  4.013915
C    -1.502934  1.349442  4.366765
C    -2.484928  2.395671  3.807018
C    -2.488448  3.682521  4.631018
O    -3.369118  3.951951  5.440599
N    -1.436326  4.538586  4.385003
H    -0.471995  1.735724  4.364307
H    -1.775896  1.126489  5.407300
H    -3.510326  2.005084  3.841391
H    -2.240544  2.647891  2.760428
H    -0.619037  4.232004  3.868587
H    -1.319876  5.316475  5.027994
N    -3.306210  -1.428014  2.733113
C    -4.483261  -2.277847  2.805347
H    -2.717441  -1.443353  1.904681
H    -5.167021  -2.062962  1.972736
H    -4.987036  -2.061648  3.754467
H    -4.213977  -3.344769  2.783609
