29
Energy: -19156.9750716 eV PBE+vdW (tier 2 basis)
C    -0.239551  -0.588979  0.166657
C    -0.941084  0.208277  1.250225
O    -0.915420  1.443915  1.270052
H    -0.370963  -1.673154  0.264899
H    0.831767  -0.353159  0.195227
H    -0.618661  -0.267853  -0.811391
N    -1.602330  -0.527038  2.181649
C    -2.219100  0.052996  3.355527
C    -2.397871  -1.103721  4.365121
O    -2.139396  -2.271116  4.051001
H    -1.520371  -1.544172  2.232139
H    -1.512321  0.774776  3.798861
C    -3.554639  0.795136  3.056447
C    -3.424539  2.314956  3.104696
C    -3.130773  2.849174  4.500074
O    -3.256743  2.180901  5.532849
N    -2.739035  4.150543  4.549490
H    -4.330122  0.470282  3.762671
H    -3.888438  0.493381  2.055685
H    -4.362679  2.785610  2.767919
H    -2.632952  2.635866  2.410290
H    -2.540666  4.676835  3.709140
H    -2.509653  4.556709  5.448355
N    -2.841119  -0.709844  5.577685
C    -3.093873  -1.639102  6.660145
H    -3.041651  0.289206  5.705887
H    -2.543463  -1.341373  7.562954
H    -2.757976  -2.632839  6.346196
H    -4.165289  -1.687524  6.904175
