29
Energy: -19156.5016058 eV PBE+vdW (tier 2 basis)
C    -0.538626  0.319593  -0.164802
C    -0.370284  -0.002082  1.311737
O    0.739104  -0.067211  1.834797
H    0.445066  0.254247  -0.636979
H    -0.924710  1.340627  -0.293022
H    -1.230767  -0.367322  -0.672573
N    -1.510666  -0.219301  2.043146
C    -2.878002  -0.197572  1.574363
C    -3.301013  1.174058  0.995979
O    -3.016187  2.240785  1.535340
H    -1.366480  -0.452609  3.030628
H    -3.018618  -0.958375  0.781760
C    -3.850550  -0.581125  2.715599
C    -3.923164  0.389493  3.903394
C    -2.907060  0.103961  5.004683
O    -1.985417  -0.702806  4.884252
N    -3.097135  0.801734  6.160891
H    -3.570087  -1.581589  3.074975
H    -4.850796  -0.667592  2.269472
H    -4.929564  0.354446  4.346792
H    -3.768085  1.424827  3.559073
H    -3.774198  1.550313  6.225163
H    -2.384601  0.734108  6.877776
N    -4.065553  1.084867  -0.131753
C    -4.607042  2.246479  -0.810044
H    -4.190350  0.170868  -0.550372
H    -5.700672  2.184135  -0.895036
H    -4.177933  2.358938  -1.815764
H    -4.343032  3.126347  -0.213649
