29
Energy: -19156.3785648 eV PBE+vdW (tier 2 basis)
C    0.656869  0.873416  1.332090
C    0.081713  -0.390106  1.939221
O    0.780947  -1.341496  2.280409
H    1.718226  0.703057  1.135483
H    0.552387  1.725098  2.019234
H    0.148670  1.151983  0.399042
N    -1.284454  -0.439442  2.098730
C    -2.246267  0.634114  1.902475
C    -2.086686  1.852676  2.842917
O    -2.207694  2.987387  2.376083
H    -1.609360  -1.302456  2.526576
H    -2.100292  1.074624  0.904671
C    -3.668758  0.052790  1.976210
C    -4.772146  1.065837  1.682912
C    -6.147488  0.524301  2.068732
O    -6.310412  -0.315058  2.948176
N    -7.194352  1.061819  1.373507
H    -3.858387  -0.381474  2.968744
H    -3.727644  -0.779486  1.258427
H    -4.755912  1.374020  0.627109
H    -4.613550  1.987347  2.266345
H    -7.066016  1.799690  0.694280
H    -8.135685  0.815452  1.654654
N    -1.835310  1.664125  4.170445
C    -1.704796  0.440092  4.951343
H    -1.747023  2.544653  4.668250
H    -1.746962  0.712797  6.011506
H    -0.755049  -0.080034  4.766886
H    -2.533014  -0.254892  4.764211
