29
Energy: -19156.3458609 eV PBE+vdW (tier 2 basis)
C    0.075414  0.169479  -0.374996
C    0.713660  -0.055338  0.979995
O    1.915725  -0.272462  1.111174
H    0.790775  -0.145574  -1.138992
H    -0.134355  1.239530  -0.513076
H    -0.872588  -0.364243  -0.511317
N    -0.087593  0.019204  2.100488
C    -1.535875  0.199378  2.217700
C    -2.312011  -0.920082  1.472124
O    -3.166483  -0.667987  0.614595
H    0.443750  -0.082707  2.959514
H    -1.749132  0.045212  3.288049
C    -2.031718  1.613199  1.833908
C    -2.924311  2.288427  2.882955
C    -4.304282  1.712331  3.218961
O    -4.826638  1.955685  4.304720
N    -4.936059  1.005713  2.239324
H    -2.529484  1.569048  0.855788
H    -1.142041  2.243074  1.704705
H    -3.115850  3.325562  2.564066
H    -2.397587  2.369849  3.844196
H    -5.834488  0.605171  2.484300
H    -4.433617  0.601514  1.448257
N    -2.021511  -2.206339  1.797154
C    -1.101068  -2.724722  2.798055
H    -2.551750  -2.879027  1.251846
H    -0.057109  -2.707575  2.456187
H    -1.382303  -3.760473  3.017259
H    -1.174209  -2.161064  3.737264
