29
Energy: -19156.7783398 eV PBE+vdW (tier 2 basis)
C    0.515632  -0.046229  -0.306064
C    0.190087  -0.139478  1.169495
O    0.812139  0.513658  2.016318
H    0.342387  0.985961  -0.636246
H    -0.077743  -0.722806  -0.933046
H    1.581141  -0.262035  -0.449770
N    -0.830405  -0.976642  1.504319
C    -1.338796  -1.111553  2.870306
C    -0.455412  -2.102861  3.679986
O    -0.826159  -3.243850  3.960396
H    -1.271090  -1.530920  0.778984
H    -1.247070  -0.114523  3.327890
C    -2.805889  -1.536450  2.836761
C    -3.476203  -1.514248  4.211878
C    -3.594909  -0.101345  4.779604
O    -3.848983  0.875683  4.081824
N    -3.421895  -0.004262  6.131817
H    -2.878036  -2.554854  2.427929
H    -3.344943  -0.848519  2.170595
H    -2.952350  -2.188293  4.902825
H    -4.503367  -1.898923  4.114442
H    -3.169615  -0.800969  6.700233
H    -3.516746  0.904109  6.569636
N    0.743119  -1.571277  4.032898
C    1.776383  -2.346794  4.689792
H    0.974725  -0.664899  3.614182
H    2.211913  -1.778977  5.522385
H    2.583282  -2.621061  3.993199
H    1.322370  -3.265528  5.075945
