29
Energy: -19156.367199 eV PBE+vdW (tier 2 basis)
C    -1.109028  1.834395  0.434069
C    -0.718170  1.060112  1.679032
O    0.255426  1.363489  2.363044
H    -1.125445  1.192530  -0.456947
H    -0.371888  2.628183  0.289901
H    -2.104071  2.290827  0.536147
N    -1.511239  -0.006753  2.033320
C    -2.675926  -0.549092  1.338697
C    -3.696975  -1.020181  2.399088
O    -3.966216  -2.208013  2.572178
H    -1.172897  -0.502812  2.853923
H    -3.143864  0.283162  0.791300
C    -2.345065  -1.640541  0.307599
C    -1.461532  -2.779870  0.813995
C    -0.989166  -3.662002  -0.338721
O    -0.687619  -3.214513  -1.440680
N    -0.893859  -4.993388  -0.044314
H    -1.835561  -1.171293  -0.545586
H    -3.292029  -2.047620  -0.075060
H    -1.984682  -3.364469  1.581143
H    -0.548955  -2.368368  1.276659
H    -1.196569  -5.370199  0.843246
H    -0.567042  -5.626655  -0.763848
N    -4.286602  -0.043836  3.151921
C    -4.096342  1.396419  3.088501
H    -4.914431  -0.411784  3.859603
H    -4.887805  1.875432  3.674572
H    -4.182115  1.768364  2.058117
H    -3.123349  1.711179  3.491531
