29
Energy: -19156.9162064 eV PBE+vdW (tier 2 basis)
C    0.232077  0.008658  0.146890
C    0.157669  0.209613  1.646558
O    1.175939  0.444077  2.311825
H    0.678312  0.901710  -0.307810
H    -0.740991  -0.184449  -0.319407
H    0.904295  -0.833323  -0.060415
N    -1.085640  0.124952  2.184113
C    -1.378024  0.137971  3.606771
C    -2.540504  -0.842858  3.822827
O    -3.308363  -1.122515  2.897978
H    -1.872537  -0.190815  1.616809
H    -0.480582  -0.208499  4.139750
C    -1.783258  1.541687  4.122761
C    -0.593275  2.493080  4.304619
C    0.319587  2.000793  5.428418
O    -0.029052  2.053316  6.609426
N    1.514404  1.494242  5.019555
H    -2.303684  1.445874  5.086188
H    -2.507620  1.963587  3.411854
H    -0.968373  3.479395  4.608374
H    -0.041791  2.614176  3.363558
H    1.628278  1.205777  4.043554
H    2.099600  1.065135  5.728006
N    -2.702058  -1.339353  5.076786
C    -1.797000  -1.208974  6.213924
H    -3.494483  -1.967743  5.164274
H    -2.283121  -1.654247  7.087886
H    -1.575816  -0.161469  6.455631
H    -0.846615  -1.738291  6.047965
