29
Energy: -19155.5375196 eV PBE+vdW (tier 2 basis)
C    0.099235  1.066217  0.887836
C    0.020034  0.099459  2.056088
O    0.657507  -0.962689  2.073074
H    -0.296191  2.062284  1.123569
H    -0.472927  0.649472  0.047026
H    1.145376  1.145817  0.569187
N    -0.820072  0.481571  3.060871
C    -0.953772  -0.268319  4.305709
C    -2.247228  -1.120595  4.263222
O    -3.351803  -0.597145  4.430976
H    -1.197343  1.433105  3.068673
H    -0.064190  -0.910993  4.380307
C    -1.026469  0.680410  5.512400
C    0.162780  1.642766  5.635735
C    -0.008325  2.967000  4.884834
O    -0.876418  3.172668  4.031984
N    0.889878  3.937452  5.227764
H    -1.080435  0.058953  6.418289
H    -1.972035  1.239441  5.462389
H    1.089755  1.170524  5.266486
H    0.341923  1.875695  6.697208
H    1.620097  3.783676  5.912748
H    0.858079  4.821057  4.729623
N    -2.116699  -2.458065  4.022132
C    -0.905143  -3.247442  3.812349
H    -3.011714  -2.943658  4.019112
H    -1.179459  -4.156468  3.263124
H    -0.439408  -3.552271  4.764275
H    -0.180035  -2.691919  3.203012
