29
Energy: -19156.6727314 eV PBE+vdW (tier 2 basis)
C    -0.192256  1.091402  0.483982
C    -0.111150  0.294175  1.775968
O    0.956736  0.093369  2.347352
H    0.815728  1.439824  0.245093
H    -0.858619  1.960393  0.577295
H    -0.561048  0.475748  -0.348751
N    -1.291626  -0.178416  2.303917
C    -2.601933  -0.197124  1.673289
C    -3.725248  0.303560  2.623148
O    -4.903797  0.008643  2.421193
H    -1.187579  -0.797481  3.113995
H    -2.591690  0.542226  0.859603
C    -2.976359  -1.554644  1.043771
C    -2.682373  -2.795607  1.913361
C    -3.195560  -2.666662  3.341174
O    -2.538458  -2.092892  4.213535
N    -4.413345  -3.219784  3.600130
H    -2.422462  -1.668444  0.101098
H    -4.045184  -1.506590  0.796927
H    -1.598469  -2.953244  1.987471
H    -3.106463  -3.681338  1.420107
H    -5.026594  -3.480842  2.838616
H    -4.849654  -2.981709  4.484072
N    -3.304044  1.126052  3.613946
C    -4.197072  1.646560  4.628885
H    -2.300116  1.193320  3.747929
H    -4.112568  1.079512  5.568268
H    -5.223036  1.556889  4.256692
H    -3.975153  2.702284  4.829838
