29
Energy: -19156.7261813 eV PBE+vdW (tier 2 basis)
C    0.411067  1.077014  0.534743
C    -0.192781  0.546102  1.821643
O    0.015374  1.081632  2.911211
H    0.158474  2.139595  0.435777
H    0.076253  0.541577  -0.361827
H    1.504064  1.006861  0.605939
N    -0.992305  -0.553112  1.677974
C    -1.487537  -1.311169  2.811817
C    -1.359832  -2.800052  2.437666
O    -1.271419  -3.158414  1.261909
H    -0.991052  -1.080053  0.805178
H    -0.841709  -1.073114  3.673030
C    -2.949848  -0.980831  3.176037
C    -3.153970  0.470540  3.604080
C    -4.510708  0.680771  4.271309
O    -5.100412  -0.203383  4.884608
N    -5.019972  1.945014  4.153924
H    -3.283378  -1.629797  3.998444
H    -3.592900  -1.217601  2.314632
H    -3.028095  1.156401  2.754623
H    -2.381262  0.758474  4.335491
H    -4.498050  2.692013  3.715787
H    -5.861245  2.174244  4.669266
N    -1.381996  -3.661798  3.487347
C    -1.368236  -5.104457  3.328753
H    -1.458911  -3.275616  4.420942
H    -1.251967  -5.319147  2.261690
H    -2.306614  -5.553775  3.683144
H    -0.528598  -5.551489  3.877658
