29
Energy: -19155.6221948 eV PBE+vdW (tier 2 basis)
C    -0.458874  1.977936  -0.109472
C    -0.660621  1.051760  1.077069
O    0.180448  0.207137  1.399099
H    -0.410459  1.369659  -1.022533
H    0.509220  2.483366  -0.001812
H    -1.250159  2.729930  -0.220176
N    -1.826451  1.241628  1.772357
C    -2.277180  0.313323  2.798467
C    -3.793278  0.126543  2.583317
O    -4.450628  0.942982  1.929281
H    -2.587811  1.786109  1.360580
H    -1.740506  -0.638021  2.640634
C    -2.003840  0.820194  4.230772
C    -0.518499  1.047617  4.514903
C    -0.249378  1.202191  6.010131
O    -0.934321  0.660156  6.875925
N    0.827163  1.993597  6.325054
H    -2.383865  0.093811  4.964850
H    -2.567657  1.752994  4.392935
H    -0.137841  1.916129  3.957606
H    0.068389  0.182004  4.163952
H    1.470996  2.311388  5.609214
H    1.141084  1.995074  7.290958
N    -4.336303  -0.967137  3.184393
C    -5.764620  -1.247515  3.172500
H    -3.721414  -1.582947  3.708183
H    -5.963113  -2.243403  2.752660
H    -6.242288  -0.489658  2.542265
H    -6.188195  -1.191847  4.185891
