29
Energy: -19156.652931 eV PBE+vdW (tier 2 basis)
C    -0.906343  -1.387662  0.595667
C    -0.407239  -0.413578  1.644609
O    0.639690  -0.580085  2.260744
H    -0.141853  -2.156578  0.459971
H    -1.102758  -0.894895  -0.366577
H    -1.840298  -1.870935  0.917070
N    -1.182899  0.706409  1.880911
C    -2.476418  1.042213  1.310534
C    -2.430265  1.960309  0.071030
O    -3.488022  2.277132  -0.486061
H    -0.843300  1.273863  2.654190
H    -2.925257  0.114140  0.926889
C    -3.434974  1.634942  2.371374
C    -4.401131  0.610909  2.965525
C    -5.485029  0.026369  2.049409
O    -6.177466  -0.909670  2.441346
N    -5.660089  0.608816  0.828415
H    -3.996508  2.464422  1.922026
H    -2.831624  2.081465  3.176593
H    -4.943210  1.057705  3.812461
H    -3.858903  -0.248655  3.386194
H    -6.368605  0.195370  0.233248
H    -5.024241  1.293874  0.411252
N    -1.204605  2.346074  -0.343600
C    -0.983298  3.180622  -1.509358
H    -0.415189  2.012099  0.200916
H    -0.454604  4.103423  -1.235737
H    -1.961722  3.438404  -1.927821
H    -0.396864  2.648020  -2.270388
