29
Energy: -19156.1069571 eV PBE+vdW (tier 2 basis)
C    -0.018987  0.319388  1.023269
C    -0.482989  0.331053  2.462664
O    0.120514  0.938921  3.343206
H    0.971783  0.779660  0.988259
H    -0.704699  0.911219  0.401567
H    0.042991  -0.699752  0.620139
N    -1.641705  -0.346341  2.785044
C    -2.520713  -1.189178  1.972214
C    -1.763321  -2.465965  1.495826
O    -1.274839  -3.183241  2.366369
H    -1.772285  -0.395772  3.789868
H    -3.208291  -1.631799  2.709191
C    -3.408346  -0.389484  1.001382
C    -4.132464  0.768208  1.701770
C    -3.261335  2.023862  1.759972
O    -2.634328  2.412124  0.777799
N    -3.276380  2.716130  2.936115
H    -4.146895  -1.077556  0.566437
H    -2.840245  0.045709  0.171213
H    -4.492195  0.474467  2.699620
H    -5.020552  1.046015  1.114151
H    -3.600082  2.275783  3.787189
H    -2.608271  3.473416  3.031317
N    -1.659506  -2.832280  0.180158
C    -2.012231  -2.174405  -1.071225
H    -1.161981  -3.714665  0.101219
H    -1.595368  -2.774766  -1.886806
H    -1.584433  -1.167284  -1.150818
H    -3.097668  -2.111454  -1.225485
