29
Energy: -19156.608191 eV PBE+vdW (tier 2 basis)
C    0.153062  0.431784  1.622344
C    -0.612583  -0.189379  2.768034
O    -0.081759  -0.543807  3.817058
H    1.153660  0.686672  1.980794
H    -0.337694  1.331326  1.226862
H    0.244002  -0.300711  0.807370
N    -1.978162  -0.341863  2.607777
C    -2.781408  -0.199477  1.400089
C    -3.633196  1.095372  1.355831
O    -4.423338  1.289469  0.433897
H    -2.397324  -0.858552  3.377974
H    -2.099554  -0.115562  0.540825
C    -3.683429  -1.427504  1.182650
C    -2.979722  -2.635712  0.535438
C    -1.650158  -3.011693  1.182391
O    -0.572347  -2.683432  0.693632
N    -1.729338  -3.717518  2.350005
H    -4.513161  -1.116614  0.535121
H    -4.129926  -1.708912  2.151641
H    -2.751324  -2.406282  -0.512402
H    -3.666339  -3.495685  0.543518
H    -2.613800  -3.951224  2.780422
H    -0.877909  -3.864927  2.879687
N    -3.408211  1.967410  2.371173
C    -4.071684  3.251764  2.467416
H    -2.730519  1.685136  3.072195
H    -4.646788  3.331993  3.400189
H    -4.756873  3.336376  1.616909
H    -3.347524  4.077399  2.426615
