29
Energy: -19155.5636471 eV PBE+vdW (tier 2 basis)
C    -0.006740  1.403614  1.045713
C    -0.029761  0.504566  2.268020
O    0.930140  -0.204541  2.595664
H    1.035497  1.595283  0.770842
H    -0.529554  2.353510  1.222680
H    -0.495216  0.893986  0.202268
N    -1.201948  0.533213  2.972314
C    -1.399848  -0.178196  4.234665
C    -2.564236  -1.174689  4.047342
O    -3.736492  -0.813957  4.177570
H    -1.924821  1.195971  2.699250
H    -0.453197  -0.704225  4.420096
C    -1.691012  0.789274  5.390778
C    -0.513193  1.723974  5.695978
C    -0.290579  2.791242  4.622954
O    -1.198390  3.510896  4.206034
N    1.009415  2.937672  4.205840
H    -1.925152  0.194157  6.285916
H    -2.592118  1.377702  5.165349
H    0.406720  1.146342  5.876700
H    -0.730475  2.276443  6.623516
H    1.670021  2.175798  4.323660
H    1.167090  3.571195  3.426671
N    -2.241339  -2.452571  3.686284
C    -0.924050  -3.058096  3.515244
H    -3.058955  -3.050283  3.580056
H    -1.013218  -3.890931  2.806868
H    -0.523236  -3.454802  4.462670
H    -0.206354  -2.341547  3.098059
