29
Energy: -19156.1854511 eV PBE+vdW (tier 2 basis)
C    0.562971  -1.104751  0.588121
C    0.345854  0.039689  1.565572
O    1.275629  0.761246  1.923292
H    1.299587  -1.794996  1.017749
H    0.997437  -0.698402  -0.333588
H    -0.345771  -1.665853  0.337603
N    -0.948747  0.186119  1.989448
C    -1.524584  1.121730  2.964278
C    -2.413036  2.216783  2.316398
O    -3.587799  2.310403  2.672943
H    -1.619739  -0.462611  1.594587
H    -2.268460  0.533646  3.519809
C    -0.534987  1.695845  3.998708
C    -1.249306  2.259485  5.233707
C    -1.950637  1.285441  6.181772
O    -2.868118  1.645692  6.907357
N    -1.487213  -0.006754  6.192372
H    0.082057  2.484151  3.553346
H    0.184248  0.911601  4.274766
H    -2.011778  2.998361  4.954122
H    -0.514509  2.802478  5.849124
H    -1.861095  -0.627319  6.900280
H    -0.639127  -0.280018  5.713956
N    -1.888649  3.076167  1.395629
C    -0.585295  3.099903  0.753013
H    -2.591429  3.720971  1.044347
H    -0.588617  2.554978  -0.204830
H    0.186504  2.652784  1.387265
H    -0.301924  4.141416  0.556489
