29
Energy: -19156.3763477 eV PBE+vdW (tier 2 basis)
C    0.335044  -0.252139  0.542720
C    0.102507  -0.565516  2.002514
O    1.026096  -0.658663  2.805773
H    -0.278156  0.594905  0.204629
H    0.093333  -1.110847  -0.099826
H    1.392433  -0.002511  0.421849
N    -1.196650  -0.776520  2.450588
C    -2.479464  -0.455111  1.816044
C    -3.649673  -0.767515  2.769465
O    -4.705028  -0.147716  2.680895
H    -1.205274  -0.763235  3.468504
H    -2.568428  0.626502  1.622443
C    -2.736212  -1.183443  0.476385
C    -2.576213  -2.706200  0.528328
C    -2.231894  -3.274674  -0.845582
O    -1.386547  -2.758953  -1.570903
N    -2.900425  -4.409964  -1.201816
H    -2.056852  -0.795263  -0.289956
H    -3.752621  -0.912070  0.159057
H    -3.463773  -3.192552  0.957205
H    -1.722627  -2.962120  1.178106
H    -3.617004  -4.820953  -0.620030
H    -2.683765  -4.840295  -2.092881
N    -3.442114  -1.780429  3.662336
C    -4.477267  -2.239053  4.570109
H    -2.581865  -2.312909  3.588560
H    -4.072453  -2.369907  5.581573
H    -4.918609  -3.190604  4.237489
H    -5.265454  -1.479372  4.588605
