29
Energy: -19156.493595 eV PBE+vdW (tier 2 basis)
C    0.275309  -0.596583  0.671639
C    -0.094357  0.379810  1.780707
O    0.431786  1.488438  1.854486
H    0.693876  -1.535630  1.060619
H    1.023493  -0.109249  0.041132
H    -0.594895  -0.854938  0.051636
N    -1.029679  -0.021239  2.695162
C    -1.705920  -1.299145  2.799657
C    -3.229707  -1.060746  2.825899
O    -3.713430  -0.104002  3.421097
H    -1.294783  0.684209  3.381041
H    -1.439234  -1.892716  1.914588
C    -1.297986  -2.082333  4.071270
C    0.218196  -2.218368  4.243919
C    0.842504  -0.942184  4.816229
O    0.336635  -0.351684  5.763642
N    2.025847  -0.549818  4.252746
H    -1.767990  -3.075845  4.033097
H    -1.698862  -1.566671  4.956061
H    0.707136  -2.526900  3.307149
H    0.422792  -3.011244  4.979157
H    2.294435  -0.887940  3.337612
H    2.368480  0.368753  4.514166
N    -3.970521  -2.009239  2.182422
C    -5.422299  -1.996268  2.168416
H    -3.484272  -2.755088  1.699934
H    -5.833323  -2.901871  2.635600
H    -5.809365  -1.915171  1.143454
H    -5.746633  -1.120749  2.740501
