29
Energy: -19156.4271138 eV PBE+vdW (tier 2 basis)
C    0.648169  0.122588  0.229085
C    0.053062  0.416709  1.594210
O    0.530605  1.251788  2.355397
H    0.828011  1.071449  -0.289186
H    0.023008  -0.521727  -0.401513
H    1.622717  -0.362661  0.370884
N    -1.068787  -0.305872  1.912859
C    -1.699889  -0.293528  3.232348
C    -1.782761  1.131838  3.843119
O    -1.354568  1.376557  4.971790
H    -1.369478  -1.026782  1.267574
H    -2.742314  -0.620059  3.070118
C    -1.024572  -1.266710  4.209329
C    -1.895829  -1.613599  5.438425
C    -1.088348  -1.700148  6.735119
O    -0.895607  -2.760128  7.326113
N    -0.613789  -0.497958  7.166337
H    -0.070576  -0.821100  4.518588
H    -0.782814  -2.186241  3.659308
H    -2.392972  -2.580578  5.305118
H    -2.676279  -0.850427  5.574955
H    -0.725007  0.334509  6.587233
H    0.005150  -0.485635  7.967004
N    -2.460781  2.084291  3.142790
C    -2.989631  2.034123  1.792717
H    -2.422960  2.992271  3.596104
H    -3.756008  2.811358  1.690342
H    -3.471189  1.069434  1.593582
H    -2.216640  2.202400  1.026979
