29
Energy: -19155.3042283 eV PBE+vdW (tier 2 basis)
C    -2.925076  1.095772  0.574613
C    -2.336861  0.369968  1.774594
O    -2.713796  -0.750757  2.114552
H    -2.351991  1.978252  0.261647
H    -3.948213  1.409587  0.823613
H    -2.992868  0.389522  -0.261590
N    -1.342153  1.045550  2.438845
C    -0.757328  0.593815  3.704676
C    -0.391836  -0.911565  3.700618
O    -0.736006  -1.658219  4.617824
H    -1.139548  2.000768  2.159378
H    0.188716  1.151260  3.807952
C    -1.659419  0.963173  4.898748
C    -0.979869  0.872419  6.266834
C    0.219951  1.804882  6.413819
O    0.438861  2.759070  5.663724
N    1.037853  1.524259  7.477135
H    -2.538891  0.305094  4.889123
H    -1.999517  1.995881  4.735112
H    -0.686476  -0.167339  6.471546
H    -1.705431  1.155626  7.047642
H    0.930038  0.677982  8.023914
H    1.868344  2.092827  7.607200
N    0.445545  -1.366153  2.713154
C    0.917967  -0.699784  1.509802
H    0.571852  -2.374727  2.767020
H    0.164324  -0.684314  0.705669
H    1.804628  -1.234955  1.146594
H    1.222202  0.332105  1.725240
