29
Energy: -19156.3416292 eV PBE+vdW (tier 2 basis)
C    0.057440  -0.224399  -0.026656
C    -0.113615  -0.561719  1.438957
O    0.824390  -0.946001  2.134614
H    1.129632  -0.198479  -0.237493
H    -0.399800  0.733154  -0.301715
H    -0.410730  -0.992945  -0.656780
N    -1.370481  -0.459649  1.997921
C    -2.633240  0.051856  1.459304
C    -3.042505  -0.658104  0.141034
O    -3.084715  -0.061920  -0.935828
H    -1.358472  -0.684663  2.988415
H    -3.392640  -0.233174  2.202384
C    -2.683726  1.582263  1.295860
C    -4.079514  2.185651  1.564767
C    -5.202018  1.465755  0.824123
O    -5.739755  0.459727  1.286044
N    -5.577893  2.011015  -0.371333
H    -2.354144  1.839854  0.280581
H    -1.972165  2.026792  2.003931
H    -4.065867  3.255603  1.313358
H    -4.317785  2.099789  2.633425
H    -4.954751  2.654867  -0.843293
H    -6.159451  1.430250  -0.966088
N    -3.337751  -1.983163  0.233906
C    -3.537442  -2.762854  1.446116
H    -3.648720  -2.383856  -0.645100
H    -2.613687  -2.834001  2.034958
H    -3.829044  -3.777638  1.156812
H    -4.339748  -2.345031  2.073039
