29
Energy: -19155.5767334 eV PBE+vdW (tier 2 basis)
C    -1.518688  1.926060  1.352812
C    -0.717446  0.950258  2.195463
O    0.430485  0.595958  1.904802
H    -2.302716  1.392604  0.795796
H    -0.846038  2.404167  0.634062
H    -2.003892  2.689702  1.977107
N    -1.380759  0.478121  3.299560
C    -0.738083  -0.340816  4.328996
C    -1.577331  -1.618784  4.558737
O    -2.268449  -1.765358  5.568686
H    -2.255900  0.929401  3.559227
H    0.244521  -0.607649  3.909824
C    -0.545962  0.429293  5.642565
C    0.398498  1.629115  5.503477
C    -0.219741  2.812802  4.757895
O    -1.356719  3.225987  4.990054
N    0.612334  3.431078  3.858033
H    -0.146791  -0.269581  6.390784
H    -1.519732  0.765526  6.026904
H    1.351863  1.328024  5.042285
H    0.638619  2.008094  6.509663
H    1.397928  2.923352  3.463278
H    0.200670  4.165089  3.288026
N    -1.517505  -2.586931  3.591345
C    -0.906192  -2.529968  2.270259
H    -2.159206  -3.355749  3.778590
H    -0.008155  -1.902189  2.275479
H    -1.594716  -2.123256  1.511372
H    -0.609896  -3.543350  1.970921
