29
Energy: -19156.7245607 eV PBE+vdW (tier 2 basis)
C    -0.077836  0.881578  0.273911
C    -0.140816  0.338165  1.685892
O    0.845461  -0.169292  2.235156
H    0.426575  0.148559  -0.365583
H    0.533887  1.794153  0.278242
H    -1.060587  1.124105  -0.147213
N    -1.333955  0.497437  2.317319
C    -1.623818  -0.067822  3.620408
C    -3.047956  -0.643319  3.541136
O    -3.853351  -0.210092  2.714932
H    -2.158969  0.799556  1.801731
H    -0.878243  -0.858429  3.793286
C    -1.541934  0.962177  4.771215
C    -0.135927  1.538724  4.985947
C    0.175359  2.729121  4.076737
O    -0.543750  3.723250  4.046678
N    1.345235  2.633399  3.372924
H    -1.874760  0.472813  5.697583
H    -2.245972  1.784560  4.576121
H    0.625253  0.752214  4.895025
H    -0.072961  1.939015  6.008569
H    1.718409  1.712156  3.157881
H    1.534259  3.379106  2.711698
N    -3.393851  -1.618329  4.426966
C    -2.586540  -2.238370  5.463025
H    -4.370996  -1.888085  4.360519
H    -2.927832  -3.269063  5.615298
H    -2.651870  -1.706322  6.425005
H    -1.533754  -2.280918  5.162773
