29
Energy: -19156.2848086 eV PBE+vdW (tier 2 basis)
C    -0.855957  -1.387558  1.569310
C    -1.175346  -0.211892  2.470951
O    -0.658852  -0.101482  3.581035
H    -0.937665  -1.183846  0.497720
H    -1.542836  -2.213160  1.804859
H    0.158623  -1.718778  1.809794
N    -2.104736  0.722580  2.064619
C    -2.805954  0.939669  0.797019
C    -3.295333  -0.360592  0.121581
O    -2.983234  -0.653774  -1.031834
H    -2.209337  1.458158  2.759208
H    -3.734501  1.467885  1.077976
C    -2.071003  1.879356  -0.174368
C    -0.664342  1.458591  -0.594456
C    0.040011  2.584920  -1.348307
O    -0.068000  3.765670  -1.034424
N    0.831502  2.177587  -2.385691
H    -2.000019  2.869812  0.297569
H    -2.701126  1.998550  -1.067143
H    -0.695688  0.539124  -1.192814
H    -0.046429  1.257461  0.295875
H    0.875358  1.212405  -2.681961
H    1.337964  2.878698  -2.912549
N    -4.139025  -1.154320  0.845346
C    -4.651180  -0.969467  2.193443
H    -4.415903  -1.991985  0.342914
H    -5.562914  -1.567506  2.303051
H    -4.919972  0.078490  2.376559
H    -3.933558  -1.278528  2.967421
