29
Energy: -19156.3113758 eV PBE+vdW (tier 2 basis)
C    -0.947266  -1.940868  0.109708
C    -0.859990  -0.683647  0.956107
O    0.157952  0.011770  0.966361
H    -1.922939  -2.440742  0.146585
H    -0.717603  -1.679623  -0.930455
H    -0.174460  -2.642926  0.447325
N    -1.989884  -0.388936  1.668509
C    -2.130986  0.655562  2.691586
C    -3.582799  0.771458  3.196326
O    -3.767346  0.964982  4.395219
H    -2.710322  -1.102687  1.675620
H    -1.594865  0.335434  3.598403
C    -1.532152  2.033273  2.317989
C    -1.887077  2.595821  0.930953
C    -0.811487  3.547934  0.403984
O    -0.999520  4.753960  0.274529
N    0.364054  2.933562  0.080413
H    -0.445268  1.937669  2.403918
H    -1.848462  2.734015  3.102957
H    -2.828595  3.155228  0.948918
H    -1.992266  1.776003  0.205601
H    1.145834  3.516707  -0.190852
H    0.519872  1.947324  0.283116
N    -4.653696  0.606242  2.349062
C    -4.765821  0.792245  0.907109
H    -5.522394  0.710217  2.869658
H    -5.005280  1.833494  0.643749
H    -5.562441  0.143424  0.521212
H    -3.832772  0.522727  0.407205
