29
Energy: -19155.6223899 eV PBE+vdW (tier 2 basis)
C    -1.549890  2.488232  -0.637834
C    -1.459492  1.381530  0.395930
O    -1.358323  0.196192  0.090147
H    -0.551191  2.641550  -1.070662
H    -1.905091  3.443811  -0.230692
H    -2.213273  2.164255  -1.447886
N    -1.514834  1.803595  1.714787
C    -1.168530  0.905074  2.815520
C    -2.302868  0.768225  3.857253
O    -2.069968  0.415398  5.022052
H    -1.430593  2.803424  1.887293
H    -1.070657  -0.086604  2.340034
C    0.161051  1.270751  3.488388
C    0.161549  2.653073  4.191718
C    0.776201  2.627965  5.597588
O    1.771198  3.289090  5.893896
N    0.108465  1.830075  6.482394
H    0.952041  1.232732  2.727015
H    0.386253  0.478592  4.214418
H    -0.869972  3.031223  4.300878
H    0.729161  3.397451  3.621234
H    -0.664774  1.232954  6.177704
H    0.504494  1.717110  7.409487
N    -3.552112  1.019797  3.391375
C    -4.749694  0.842513  4.196333
H    -3.629583  1.289890  2.414027
H    -5.367627  0.018857  3.810406
H    -5.348362  1.763874  4.211827
H    -4.430582  0.601373  5.216372
