29
Energy: -19156.5388504 eV PBE+vdW (tier 2 basis)
C    -0.313134  0.610099  0.390753
C    -0.327603  -0.134057  1.708612
O    0.718821  -0.493711  2.253531
H    0.493966  0.215763  -0.235032
H    -0.093517  1.666087  0.601000
H    -1.263038  0.553027  -0.155205
N    -1.577333  -0.385482  2.217718
C    -1.811039  -0.789191  3.597646
C    -1.447528  0.403077  4.544955
O    -0.931660  1.428697  4.114930
H    -2.335354  0.111686  1.765408
H    -2.901091  -0.905397  3.697700
C    -1.168869  -2.191910  3.846873
C    -0.722184  -2.573859  5.259490
C    0.396653  -1.759144  5.920347
O    0.493223  -1.720431  7.148558
N    1.279503  -1.152678  5.085653
H    -0.310344  -2.280470  3.173468
H    -1.897176  -2.938439  3.499680
H    -0.352345  -3.611097  5.218284
H    -1.551293  -2.605076  5.981349
H    1.104207  -1.004018  4.086303
H    1.986013  -0.573934  5.525446
N    -1.836850  0.243001  5.839788
C    -1.443496  1.167114  6.890972
H    -2.171362  -0.667472  6.131811
H    -2.304719  1.417893  7.523484
H    -1.069869  2.077931  6.413632
H    -0.651130  0.727462  7.514126
