29
Energy: -19156.8230623 eV PBE+vdW (tier 2 basis)
C    -0.466056  -1.146742  -0.595414
C    -0.335687  -0.968023  0.901192
O    0.752167  -0.713173  1.435690
H    -0.163972  -0.212571  -1.085705
H    -1.479653  -1.407265  -0.922848
H    0.231292  -1.927357  -0.922647
N    -1.481925  -1.102388  1.621868
C    -1.577900  -0.841336  3.060040
C    -1.088139  -2.044748  3.920846
O    -1.819847  -2.627994  4.730691
H    -2.333180  -1.365818  1.138643
H    -0.880052  -0.013893  3.266587
C    -2.994364  -0.406361  3.434184
C    -4.117143  -1.392418  3.019747
C    -5.175285  -1.580894  4.111964
O    -6.323623  -1.160860  3.998820
N    -4.716558  -2.254144  5.202726
H    -3.185307  0.578264  2.986657
H    -3.009580  -0.261506  4.521619
H    -3.693509  -2.383299  2.795654
H    -4.651136  -1.037877  2.130907
H    -3.733252  -2.522755  5.266011
H    -5.334991  -2.363830  5.996294
N    0.209914  -2.354536  3.714955
C    0.881230  -3.447612  4.390694
H    0.711388  -1.791269  3.017495
H    1.263466  -4.180155  3.666315
H    0.160568  -3.939441  5.051739
H    1.723295  -3.078413  4.992413
