29
Energy: -19156.3487714 eV PBE+vdW (tier 2 basis)
C    -0.458496  -0.645814  0.089225
C    -0.181507  -0.138126  1.484919
O    0.728173  0.652486  1.722835
H    0.405541  -0.397147  -0.532890
H    -1.347576  -0.152834  -0.331164
H    -0.627572  -1.730062  0.063232
N    -0.964605  -0.593930  2.534833
C    -2.177509  -1.419010  2.592827
C    -1.926578  -2.945362  2.544044
O    -2.874113  -3.729936  2.574521
H    -0.711005  -0.120445  3.397365
H    -2.537429  -1.272426  3.621716
C    -3.343913  -0.970931  1.664621
C    -3.645754  -1.828798  0.428321
C    -4.225455  -0.988572  -0.705975
O    -3.789444  0.122924  -0.996171
N    -5.241071  -1.573675  -1.405296
H    -3.129845  0.053966  1.335953
H    -4.257671  -0.915873  2.269823
H    -4.296735  -2.671557  0.688820
H    -2.726336  -2.277548  0.022817
H    -5.607936  -2.482790  -1.159633
H    -5.628948  -1.083274  -2.202129
N    -0.623047  -3.324821  2.510540
C    -0.208479  -4.713021  2.537714
H    0.070576  -2.585299  2.551748
H    0.448944  -4.942620  1.688281
H    -1.110459  -5.331175  2.473436
H    0.321318  -4.955218  3.470041
